* NGSPICE file created from mux4to1_parax.ext - technology: sky130A

.subckt mux4to1_parax A2 A4 A1 A3 Z select1 VDD select0 nselect2 VSS
X0 VSS.t31 mux4onehot_0.x2.GN1.t2 mux4onehot_0.x2.GP1.t2 VSS.t30 sky130_fd_pr__nfet_01v8 ad=0.169 pd=1.82 as=0.08775 ps=0.92 w=0.65 l=0.15
X1 VDD.t27 mux4onehot_0.x1.nSEL0 a_617_3403# VDD.t26 sky130_fd_pr__pfet_01v8_hvt ad=0.1176 pd=1.4 as=0.0567 ps=0.69 w=0.42 l=0.15
X2 Z.t13 mux4onehot_0.x2.GN3 A3.t2 VSS.t53 sky130_fd_pr__nfet_01v8_lvt ad=2.32 pd=16.58 as=2.32 ps=16.58 w=8 l=0.35
X3 VDD.t36 mux4onehot_0.x2.GN2 mux4onehot_0.x2.GP2.t3 VDD.t35 sky130_fd_pr__pfet_01v8_hvt ad=0.26 pd=2.52 as=0.135 ps=1.27 w=1 l=0.15
X4 a_643_4499# select1.t0 VSS.t67 VSS.t66 sky130_fd_pr__nfet_01v8 ad=0.0504 pd=0.66 as=0.1013 ps=0.99 w=0.42 l=0.15
X5 VSS.t4 VDD.t71 VSS.t3 VSS.t2 sky130_fd_pr__nfet_01v8 ad=0.143 pd=1.62 as=0 ps=0 w=0.55 l=1.05
X6 A4.t2 mux4onehot_0.x2.GP4.t4 Z.t1 VDD.t21 sky130_fd_pr__pfet_01v8_lvt ad=2.9 pd=20.58 as=2.9 ps=20.58 w=10 l=0.35
X7 VDD.t23 mux4onehot_0.x2.GN4.t2 mux4onehot_0.x2.GP4.t2 VDD.t22 sky130_fd_pr__pfet_01v8_hvt ad=0.26 pd=2.52 as=0.135 ps=1.27 w=1 l=0.15
X8 mux4onehot_0.x2.GP3 mux4onehot_0.x2.GN3 VDD.t54 VDD.t53 sky130_fd_pr__pfet_01v8_hvt ad=0.135 pd=1.27 as=0.26 ps=2.52 w=1 l=0.15
X9 mux4onehot_0.x2.GP2.t2 mux4onehot_0.x2.GN2 VDD.t34 VDD.t33 sky130_fd_pr__pfet_01v8_hvt ad=0.135 pd=1.27 as=0.26 ps=2.52 w=1 l=0.15
X10 a_617_3403# mux4onehot_0.x1.nSEL1 VDD.t50 VDD.t49 sky130_fd_pr__pfet_01v8_hvt ad=0.0567 pd=0.69 as=0.16655 ps=1.39 w=0.42 l=0.15
X11 VDD.t14 VSS.t68 VDD.t13 VDD.t12 sky130_fd_pr__pfet_01v8_hvt ad=0.2262 pd=2.26 as=0 ps=0 w=0.87 l=1.05
X12 a_617_3403# mux4onehot_0.x1.nSEL0 a_671_3541# VSS.t19 sky130_fd_pr__nfet_01v8 ad=0.1176 pd=1.4 as=0.0567 ps=0.69 w=0.42 l=0.15
X13 A3.t0 mux4onehot_0.x2.GP3 Z.t11 VDD.t51 sky130_fd_pr__pfet_01v8_lvt ad=2.9 pd=20.58 as=2.9 ps=20.58 w=10 l=0.35
X14 VDD.t48 a_617_4547# a_617_4371# VDD.t47 sky130_fd_pr__pfet_01v8_hvt ad=0.0714 pd=0.76 as=0.0609 ps=0.71 w=0.42 l=0.15
X15 nselect2.t1 mux4onehot_0.select2 VSS.t47 VSS.t46 sky130_fd_pr__nfet_01v8 ad=0.08775 pd=0.92 as=0.169 ps=1.82 w=0.65 l=0.15
X16 VSS.t24 select0.t0 mux4onehot_0.x1.nSEL0 VSS.t23 sky130_fd_pr__nfet_01v8 ad=0.169 pd=1.82 as=0.08775 ps=0.92 w=0.65 l=0.15
X17 a_617_4547# select0.t1 VDD.t25 VDD.t24 sky130_fd_pr__pfet_01v8_hvt ad=0.1092 pd=1.36 as=0.0714 ps=0.76 w=0.42 l=0.15
X18 VDD.t46 a_617_4371# mux4onehot_0.x2.GN3 VDD.t45 sky130_fd_pr__pfet_01v8_hvt ad=0.2279 pd=1.74 as=0.26 ps=2.52 w=1 l=0.15
X19 a_671_3541# mux4onehot_0.x1.nSEL1 VSS.t52 VSS.t51 sky130_fd_pr__nfet_01v8 ad=0.0567 pd=0.69 as=0.1118 ps=1.04 w=0.42 l=0.15
X20 A4.t1 mux4onehot_0.x2.GP4.t5 Z.t2 VDD.t21 sky130_fd_pr__pfet_01v8_lvt ad=2.9 pd=20.58 as=2.9 ps=20.58 w=10 l=0.35
X21 a_617_3819# a_617_3995# a_643_3947# VSS.t43 sky130_fd_pr__nfet_01v8 ad=0.1092 pd=1.36 as=0.0504 ps=0.66 w=0.42 l=0.15
X22 VDD.t38 a_617_3819# mux4onehot_0.x2.GN2 VDD.t37 sky130_fd_pr__pfet_01v8_hvt ad=0.2279 pd=1.74 as=0.26 ps=2.52 w=1 l=0.15
X23 mux4onehot_0.x1.nSEL0 select0.t2 VSS.t6 VSS.t5 sky130_fd_pr__nfet_01v8 ad=0.08775 pd=0.92 as=0.169 ps=1.82 w=0.65 l=0.15
X24 nselect2.t3 mux4onehot_0.select2 VDD.t44 VDD.t43 sky130_fd_pr__pfet_01v8_hvt ad=0.135 pd=1.27 as=0.26 ps=2.52 w=1 l=0.15
X25 VDD.t11 VSS.t69 VDD.t10 VDD.t9 sky130_fd_pr__pfet_01v8_hvt ad=0.2262 pd=2.26 as=0 ps=0 w=0.87 l=1.05
X26 VSS.t57 mux4onehot_0.x2.GN3 mux4onehot_0.x2.GP3 VSS.t56 sky130_fd_pr__nfet_01v8 ad=0.169 pd=1.82 as=0.08775 ps=0.92 w=0.65 l=0.15
X27 VSS.t1 select1.t1 a_617_3995# VSS.t0 sky130_fd_pr__nfet_01v8 ad=0.1092 pd=1.36 as=0.1092 ps=1.36 w=0.42 l=0.15
X28 VDD.t68 select0.t3 mux4onehot_0.x1.nSEL0 VDD.t67 sky130_fd_pr__pfet_01v8_hvt ad=0.26 pd=2.52 as=0.135 ps=1.27 w=1 l=0.15
X29 mux4onehot_0.x2.GP1.t3 mux4onehot_0.x2.GN1.t3 VSS.t29 VSS.t28 sky130_fd_pr__nfet_01v8 ad=0.08775 pd=0.92 as=0.169 ps=1.82 w=0.65 l=0.15
X30 VSS.t49 a_617_4371# mux4onehot_0.x2.GN3 VSS.t48 sky130_fd_pr__nfet_01v8 ad=0.1013 pd=0.99 as=0.169 ps=1.82 w=0.65 l=0.15
X31 mux4onehot_0.x1.nSEL0 select0.t4 VDD.t18 VDD.t17 sky130_fd_pr__pfet_01v8_hvt ad=0.135 pd=1.27 as=0.26 ps=2.52 w=1 l=0.15
X32 Z.t8 mux4onehot_0.x2.GN2 A2.t1 VSS.t39 sky130_fd_pr__nfet_01v8_lvt ad=2.32 pd=16.58 as=2.32 ps=16.58 w=8 l=0.35
X33 VSS.t42 a_617_3819# mux4onehot_0.x2.GN2 VSS.t41 sky130_fd_pr__nfet_01v8 ad=0.1013 pd=0.99 as=0.169 ps=1.82 w=0.65 l=0.15
X34 mux4onehot_0.x2.GP4.t3 mux4onehot_0.x2.GN4.t3 VDD.t60 VDD.t59 sky130_fd_pr__pfet_01v8_hvt ad=0.135 pd=1.27 as=0.26 ps=2.52 w=1 l=0.15
X35 a_643_3947# select0.t5 VSS.t18 VSS.t17 sky130_fd_pr__nfet_01v8 ad=0.0504 pd=0.66 as=0.1013 ps=0.99 w=0.42 l=0.15
X36 VDD.t62 a_617_5059# mux4onehot_0.x2.GN4.t1 VDD.t61 sky130_fd_pr__pfet_01v8_hvt ad=0.16655 pd=1.39 as=0.475 ps=2.95 w=1 l=0.15
X37 VDD.t32 mux4onehot_0.x2.GN1.t4 mux4onehot_0.x2.GP1.t0 VDD.t31 sky130_fd_pr__pfet_01v8_hvt ad=0.26 pd=2.52 as=0.135 ps=1.27 w=1 l=0.15
X38 A1.t1 mux4onehot_0.x2.GP1.t4 Z.t4 VDD.t28 sky130_fd_pr__pfet_01v8_lvt ad=2.9 pd=20.58 as=2.9 ps=20.58 w=10 l=0.35
X39 a_617_3819# select0.t6 VDD.t20 VDD.t19 sky130_fd_pr__pfet_01v8_hvt ad=0.0609 pd=0.71 as=0.2279 ps=1.74 w=0.42 l=0.15
X40 Z.t6 mux4onehot_0.x2.GN1.t5 A1.t3 VSS.t27 sky130_fd_pr__nfet_01v8_lvt ad=2.32 pd=16.58 as=2.32 ps=16.58 w=8 l=0.35
X41 Z.t7 mux4onehot_0.x2.GN2 A2.t0 VSS.t39 sky130_fd_pr__nfet_01v8_lvt ad=2.32 pd=16.58 as=2.32 ps=16.58 w=8 l=0.35
X42 VSS.t26 select1.t2 mux4onehot_0.x1.nSEL1 VSS.t25 sky130_fd_pr__nfet_01v8 ad=0.169 pd=1.82 as=0.08775 ps=0.92 w=0.65 l=0.15
X43 VSS.t61 a_617_5059# mux4onehot_0.x2.GN4.t0 VSS.t60 sky130_fd_pr__nfet_01v8 ad=0.1118 pd=1.04 as=0.182 ps=1.86 w=0.65 l=0.15
X44 A2.t3 mux4onehot_0.x2.GP2.t4 Z.t14 VDD.t0 sky130_fd_pr__pfet_01v8_lvt ad=2.9 pd=20.58 as=2.9 ps=20.58 w=10 l=0.35
X45 VSS.t38 mux4onehot_0.x2.GN2 mux4onehot_0.x2.GP2.t1 VSS.t37 sky130_fd_pr__nfet_01v8 ad=0.169 pd=1.82 as=0.08775 ps=0.92 w=0.65 l=0.15
X46 Z.t9 mux4onehot_0.x2.GN4.t4 A4.t0 VSS.t40 sky130_fd_pr__nfet_01v8_lvt ad=2.32 pd=16.58 as=2.32 ps=16.58 w=8 l=0.35
X47 VSS.t9 VDD.t72 VSS.t8 VSS.t7 sky130_fd_pr__nfet_01v8 ad=0.143 pd=1.62 as=0 ps=0 w=0.55 l=1.05
X48 VDD.t16 select1.t3 mux4onehot_0.x1.nSEL1 VDD.t15 sky130_fd_pr__pfet_01v8_hvt ad=0.26 pd=2.52 as=0.135 ps=1.27 w=1 l=0.15
X49 mux4onehot_0.x1.nSEL1 select1.t4 VSS.t63 VSS.t62 sky130_fd_pr__nfet_01v8 ad=0.08775 pd=0.92 as=0.169 ps=1.82 w=0.65 l=0.15
X50 VSS.t16 mux4onehot_0.x2.GN4.t5 mux4onehot_0.x2.GP4.t1 VSS.t15 sky130_fd_pr__nfet_01v8 ad=0.169 pd=1.82 as=0.08775 ps=0.92 w=0.65 l=0.15
X51 mux4onehot_0.x2.GP3 mux4onehot_0.x2.GN3 VSS.t55 VSS.t54 sky130_fd_pr__nfet_01v8 ad=0.08775 pd=0.92 as=0.169 ps=1.82 w=0.65 l=0.15
X52 mux4onehot_0.x2.GP2.t0 mux4onehot_0.x2.GN2 VSS.t36 VSS.t35 sky130_fd_pr__nfet_01v8 ad=0.08775 pd=0.92 as=0.169 ps=1.82 w=0.65 l=0.15
X53 VDD.t8 VSS.t70 VDD.t7 VDD.t6 sky130_fd_pr__pfet_01v8_hvt ad=0.2262 pd=2.26 as=0 ps=0 w=0.87 l=1.05
X54 VSS.t13 select0.t7 a_617_4547# VSS.t12 sky130_fd_pr__nfet_01v8 ad=0.1092 pd=1.36 as=0.1092 ps=1.36 w=0.42 l=0.15
X55 a_617_4371# a_617_4547# a_643_4499# VSS.t50 sky130_fd_pr__nfet_01v8 ad=0.1092 pd=1.36 as=0.0504 ps=0.66 w=0.42 l=0.15
X56 VDD.t64 select1.t5 a_617_5059# VDD.t63 sky130_fd_pr__pfet_01v8_hvt ad=0.1176 pd=1.4 as=0.0567 ps=0.69 w=0.42 l=0.15
X57 mux4onehot_0.x1.nSEL1 select1.t6 VDD.t70 VDD.t69 sky130_fd_pr__pfet_01v8_hvt ad=0.135 pd=1.27 as=0.26 ps=2.52 w=1 l=0.15
X58 VDD.t52 mux4onehot_0.x2.GN3 mux4onehot_0.x2.GP3 VDD.t1 sky130_fd_pr__pfet_01v8_hvt ad=0.26 pd=2.52 as=0.135 ps=1.27 w=1 l=0.15
X59 mux4onehot_0.x2.GP1.t1 mux4onehot_0.x2.GN1.t6 VDD.t30 VDD.t29 sky130_fd_pr__pfet_01v8_hvt ad=0.135 pd=1.27 as=0.26 ps=2.52 w=1 l=0.15
X60 A3.t1 mux4onehot_0.x2.GP3 Z.t10 VDD.t51 sky130_fd_pr__pfet_01v8_lvt ad=2.9 pd=20.58 as=2.9 ps=20.58 w=10 l=0.35
X61 a_617_5059# select0.t8 VDD.t66 VDD.t65 sky130_fd_pr__pfet_01v8_hvt ad=0.0567 pd=0.69 as=0.16655 ps=1.39 w=0.42 l=0.15
X62 VSS.t22 VDD.t73 VSS.t21 VSS.t20 sky130_fd_pr__nfet_01v8 ad=0.143 pd=1.62 as=0 ps=0 w=0.55 l=1.05
X63 VDD.t56 a_617_3403# mux4onehot_0.x2.GN1.t1 VDD.t55 sky130_fd_pr__pfet_01v8_hvt ad=0.16655 pd=1.39 as=0.475 ps=2.95 w=1 l=0.15
X64 VDD.t5 VSS.t71 VDD.t4 VDD.t3 sky130_fd_pr__pfet_01v8_hvt ad=0.2262 pd=2.26 as=0 ps=0 w=0.87 l=1.05
X65 Z.t15 mux4onehot_0.x2.GN4.t6 A4.t3 VSS.t40 sky130_fd_pr__nfet_01v8_lvt ad=2.32 pd=16.58 as=2.32 ps=16.58 w=8 l=0.35
X66 a_617_5059# select1.t7 a_671_5197# VSS.t14 sky130_fd_pr__nfet_01v8 ad=0.1176 pd=1.4 as=0.0567 ps=0.69 w=0.42 l=0.15
X67 VSS.t45 mux4onehot_0.select2 nselect2.t0 VSS.t44 sky130_fd_pr__nfet_01v8 ad=0.169 pd=1.82 as=0.08775 ps=0.92 w=0.65 l=0.15
X68 a_617_3995# select1.t8 VDD.t58 VDD.t57 sky130_fd_pr__pfet_01v8_hvt ad=0.1092 pd=1.36 as=0.0714 ps=0.76 w=0.42 l=0.15
X69 VDD.t40 a_617_3995# a_617_3819# VDD.t39 sky130_fd_pr__pfet_01v8_hvt ad=0.0714 pd=0.76 as=0.0609 ps=0.71 w=0.42 l=0.15
X70 a_671_5197# select0.t9 VSS.t65 VSS.t64 sky130_fd_pr__nfet_01v8 ad=0.0567 pd=0.69 as=0.1118 ps=1.04 w=0.42 l=0.15
X71 a_617_4371# select1.t9 VDD.t2 VDD.t1 sky130_fd_pr__pfet_01v8_hvt ad=0.0609 pd=0.71 as=0.2279 ps=1.74 w=0.42 l=0.15
X72 VSS.t59 a_617_3403# mux4onehot_0.x2.GN1.t0 VSS.t58 sky130_fd_pr__nfet_01v8 ad=0.1118 pd=1.04 as=0.182 ps=1.86 w=0.65 l=0.15
X73 Z.t5 mux4onehot_0.x2.GN1.t7 A1.t2 VSS.t27 sky130_fd_pr__nfet_01v8_lvt ad=2.32 pd=16.58 as=2.32 ps=16.58 w=8 l=0.35
X74 A1.t0 mux4onehot_0.x2.GP1.t5 Z.t3 VDD.t28 sky130_fd_pr__pfet_01v8_lvt ad=2.9 pd=20.58 as=2.9 ps=20.58 w=10 l=0.35
X75 VDD.t42 mux4onehot_0.select2 nselect2.t2 VDD.t41 sky130_fd_pr__pfet_01v8_hvt ad=0.26 pd=2.52 as=0.135 ps=1.27 w=1 l=0.15
X76 VSS.t34 VDD.t74 VSS.t33 VSS.t32 sky130_fd_pr__nfet_01v8 ad=0.143 pd=1.62 as=0 ps=0 w=0.55 l=1.05
X77 A2.t2 mux4onehot_0.x2.GP2.t5 Z.t0 VDD.t0 sky130_fd_pr__pfet_01v8_lvt ad=2.9 pd=20.58 as=2.9 ps=20.58 w=10 l=0.35
X78 Z.t12 mux4onehot_0.x2.GN3 A3.t3 VSS.t53 sky130_fd_pr__nfet_01v8_lvt ad=2.32 pd=16.58 as=2.32 ps=16.58 w=8 l=0.35
X79 mux4onehot_0.x2.GP4.t0 mux4onehot_0.x2.GN4.t7 VSS.t11 VSS.t10 sky130_fd_pr__nfet_01v8 ad=0.08775 pd=0.92 as=0.169 ps=1.82 w=0.65 l=0.15
R0 mux4onehot_0.x2.GN1.n1 mux4onehot_0.x2.GN1.t5 377.486
R1 mux4onehot_0.x2.GN1.n1 mux4onehot_0.x2.GN1.t7 374.202
R2 mux4onehot_0.x2.GN1.n7 mux4onehot_0.x2.GN1.t1 339.418
R3 mux4onehot_0.x2.GN1.n0 mux4onehot_0.x2.GN1.t0 274.06
R4 mux4onehot_0.x2.GN1.n4 mux4onehot_0.x2.GN1.t6 212.081
R5 mux4onehot_0.x2.GN1.n3 mux4onehot_0.x2.GN1.t4 212.081
R6 mux4onehot_0.x2.GN1.n5 mux4onehot_0.x2.GN1.n4 182.673
R7 mux4onehot_0.x2.GN1.n4 mux4onehot_0.x2.GN1.t3 139.78
R8 mux4onehot_0.x2.GN1.n3 mux4onehot_0.x2.GN1.t2 139.78
R9 mux4onehot_0.x2.GN1.n4 mux4onehot_0.x2.GN1.n3 61.346
R10 mux4onehot_0.x2.GN1 mux4onehot_0.x2.GN1.n5 15.8606
R11 mux4onehot_0.x2.GN1 mux4onehot_0.x2.GN1.n6 13.8044
R12 mux4onehot_0.x2.GN1.n2 mux4onehot_0.x2.GN1 11.6184
R13 mux4onehot_0.x2.GN1 mux4onehot_0.x2.GN1.n0 11.0989
R14 mux4onehot_0.x2.GN1 mux4onehot_0.x2.GN1.n2 10.8756
R15 mux4onehot_0.x2.GN1.n6 mux4onehot_0.x2.GN1 8.1246
R16 mux4onehot_0.x2.GN1.n8 mux4onehot_0.x2.GN1 6.6565
R17 mux4onehot_0.x2.GN1.n5 mux4onehot_0.x2.GN1 6.4005
R18 mux4onehot_0.x2.GN1.n0 mux4onehot_0.x2.GN1 6.1445
R19 mux4onehot_0.x2.GN1.n2 mux4onehot_0.x2.GN1 4.55738
R20 mux4onehot_0.x2.GN1.n8 mux4onehot_0.x2.GN1.n7 4.0914
R21 mux4onehot_0.x2.GN1 mux4onehot_0.x2.GN1.n8 3.61789
R22 mux4onehot_0.x2.GN1.n6 mux4onehot_0.x2.GN1 3.26325
R23 mux4onehot_0.x2.GN1.n0 mux4onehot_0.x2.GN1 2.86947
R24 mux4onehot_0.x2.GN1 mux4onehot_0.x2.GN1.n1 2.04102
R25 mux4onehot_0.x2.GN1.n7 mux4onehot_0.x2.GN1 1.74382
R26 mux4onehot_0.x2.GP1.n4 mux4onehot_0.x2.GP1.t5 450.938
R27 mux4onehot_0.x2.GP1.n4 mux4onehot_0.x2.GP1.t4 445.666
R28 mux4onehot_0.x2.GP1.n5 mux4onehot_0.x2.GP1.n3 195.832
R29 mux4onehot_0.x2.GP1.n1 mux4onehot_0.x2.GP1.n0 101.49
R30 mux4onehot_0.x2.GP1.n3 mux4onehot_0.x2.GP1.t0 26.5955
R31 mux4onehot_0.x2.GP1.n3 mux4onehot_0.x2.GP1.t1 26.5955
R32 mux4onehot_0.x2.GP1.n0 mux4onehot_0.x2.GP1.t2 24.9236
R33 mux4onehot_0.x2.GP1.n0 mux4onehot_0.x2.GP1.t3 24.9236
R34 mux4onehot_0.x2.GP1.n5 mux4onehot_0.x1.gpo0 11.8923
R35 mux4onehot_0.x1.gpo0 mux4onehot_0.x2.x1.GP 11.5413
R36 mux4onehot_0.x2.GP1.n2 mux4onehot_0.x1.x11.Y 10.7525
R37 mux4onehot_0.x1.x11.Y mux4onehot_0.x2.GP1.n5 8.09215
R38 mux4onehot_0.x2.GP1.n2 mux4onehot_0.x1.x11.Y 6.6565
R39 mux4onehot_0.x1.x11.Y mux4onehot_0.x2.GP1.n2 5.04292
R40 mux4onehot_0.x2.x1.GP mux4onehot_0.x2.GP1.n4 2.90754
R41 mux4onehot_0.x1.x11.Y mux4onehot_0.x2.GP1.n1 2.5605
R42 mux4onehot_0.x2.GP1.n1 mux4onehot_0.x1.x11.Y 1.93989
R43 VSS.n145 VSS.n22 545087
R44 VSS.n40 VSS 11981.2
R45 VSS.n147 VSS.n16 11744.7
R46 VSS.n147 VSS.n17 11744.7
R47 VSS.n151 VSS.n17 11744.7
R48 VSS.n151 VSS.n16 11744.7
R49 VSS.n158 VSS.n10 11744.7
R50 VSS.n154 VSS.n10 11744.7
R51 VSS.n158 VSS.n11 11744.7
R52 VSS.n154 VSS.n11 11744.7
R53 VSS.n167 VSS.n160 11744.7
R54 VSS.n171 VSS.n160 11744.7
R55 VSS.n167 VSS.n161 11744.7
R56 VSS.n171 VSS.n161 11744.7
R57 VSS.n179 VSS.n6 11744.7
R58 VSS.n179 VSS.n7 11744.7
R59 VSS.n178 VSS.n6 11744.7
R60 VSS.n178 VSS.n7 11744.7
R61 VSS.n166 VSS.n8 6117.99
R62 VSS.n153 VSS.n152 6083.44
R63 VSS.n172 VSS.n159 6028.93
R64 VSS.n173 VSS.n9 5416.06
R65 VSS.n174 VSS.n173 5357.62
R66 VSS.n40 VSS.n9 3878.48
R67 VSS.n146 VSS.n145 2026.31
R68 VSS.t12 VSS 1289.66
R69 VSS.n107 VSS.n41 1198.25
R70 VSS.n144 VSS.n143 1198.25
R71 VSS.n133 VSS.n29 1194.5
R72 VSS.n94 VSS.n93 1171.32
R73 VSS.n29 VSS 918.774
R74 VSS VSS.t58 918.774
R75 VSS.t48 VSS.t66 826.054
R76 VSS.t41 VSS.t17 826.054
R77 VSS.t25 VSS.t0 792.337
R78 VSS.n150 VSS.n149 767.294
R79 VSS.n169 VSS.n168 767.294
R80 VSS.n157 VSS.n156 763.106
R81 VSS.n177 VSS.n5 763.106
R82 VSS.n150 VSS.n18 732.236
R83 VSS.n168 VSS.n165 732.236
R84 VSS.n157 VSS.n12 732.236
R85 VSS.n181 VSS.n5 732.236
R86 VSS.n29 VSS.n22 708.047
R87 VSS.t46 VSS.t44 708.047
R88 VSS.t62 VSS.t25 708.047
R89 VSS.t5 VSS.t23 708.047
R90 VSS.t51 VSS.t19 708.047
R91 VSS.n93 VSS.t2 681.482
R92 VSS VSS.t46 564.751
R93 VSS VSS.t5 564.751
R94 VSS.t19 VSS 564.751
R95 VSS.n145 VSS 564.751
R96 VSS.t64 VSS.t60 554.492
R97 VSS.t32 VSS.t51 522.606
R98 VSS.t60 VSS.n22 513.419
R99 VSS VSS.t43 480.461
R100 VSS VSS.t20 459.26
R101 VSS.t2 VSS 459.26
R102 VSS.t14 VSS.t64 431.272
R103 VSS.t58 VSS.t32 387.74
R104 VSS.t15 VSS 370.37
R105 VSS.t56 VSS 370.37
R106 VSS.t30 VSS 370.37
R107 VSS VSS.t14 343.991
R108 VSS.n144 VSS.t50 337.166
R109 VSS.n92 VSS.n41 334.815
R110 VSS.n149 VSS.n148 325.502
R111 VSS.n170 VSS.n169 325.502
R112 VSS.t66 VSS.n144 320.307
R113 VSS.n156 VSS.n155 304.204
R114 VSS.n177 VSS.n176 304.204
R115 VSS VSS.t50 295.019
R116 VSS.t20 VSS.n40 278.519
R117 VSS.t0 VSS 261.303
R118 VSS.t10 VSS.t15 248.889
R119 VSS.t54 VSS.t56 248.889
R120 VSS.t35 VSS.t37 248.889
R121 VSS.t28 VSS.t30 248.889
R122 VSS VSS.t7 244.445
R123 VSS.n148 VSS.n21 242.448
R124 VSS.n170 VSS.n162 242.448
R125 VSS.n155 VSS.n15 242.448
R126 VSS.n176 VSS.n4 242.448
R127 VSS.n81 VSS.t1 240.575
R128 VSS.n137 VSS.t13 237.327
R129 VSS.n152 VSS.t27 224.799
R130 VSS.n41 VSS 222.222
R131 VSS.n93 VSS 222.222
R132 VSS.n47 VSS.t68 218.308
R133 VSS.n33 VSS.t71 218.308
R134 VSS.n138 VSS.t69 218.308
R135 VSS.n64 VSS.t70 218.308
R136 VSS.n55 VSS.t3 214.456
R137 VSS.n50 VSS.t4 214.456
R138 VSS.n122 VSS.t21 214.456
R139 VSS.n34 VSS.t22 214.456
R140 VSS.n27 VSS.t8 214.456
R141 VSS.n26 VSS.t9 214.456
R142 VSS.n59 VSS.t33 214.456
R143 VSS.n63 VSS.t34 214.456
R144 VSS.n127 VSS.n126 204.457
R145 VSS.n72 VSS.n71 200.231
R146 VSS.n24 VSS.n23 200.231
R147 VSS.n66 VSS.n61 200.105
R148 VSS VSS.t10 198.519
R149 VSS VSS.t54 198.519
R150 VSS VSS.t35 198.519
R151 VSS VSS.t28 198.519
R152 VSS.n178 VSS.n177 195
R153 VSS.t40 VSS.n178 195
R154 VSS.n180 VSS.n179 195
R155 VSS.n179 VSS.t40 195
R156 VSS.n169 VSS.n161 195
R157 VSS.n161 VSS.t53 195
R158 VSS.n164 VSS.n160 195
R159 VSS.n160 VSS.t53 195
R160 VSS.n156 VSS.n11 195
R161 VSS.n11 VSS.t39 195
R162 VSS.n13 VSS.n10 195
R163 VSS.n10 VSS.t39 195
R164 VSS.n20 VSS.n16 195
R165 VSS.n92 VSS.n16 195
R166 VSS.n149 VSS.n17 195
R167 VSS.n17 VSS.t27 195
R168 VSS.t17 VSS 177.012
R169 VSS.n175 VSS.n6 167.018
R170 VSS.n115 VSS.t16 162.471
R171 VSS.n110 VSS.t57 162.471
R172 VSS.n39 VSS.t38 162.471
R173 VSS.n101 VSS.t31 162.471
R174 VSS.n82 VSS.t26 162.471
R175 VSS.n72 VSS.t24 160.046
R176 VSS.n24 VSS.t45 160.046
R177 VSS.n36 VSS.t11 160.017
R178 VSS.n108 VSS.t55 160.017
R179 VSS.n102 VSS.t36 160.017
R180 VSS.n44 VSS.t29 160.017
R181 VSS.n89 VSS.t6 160.017
R182 VSS.n84 VSS.t63 160.017
R183 VSS.n81 VSS.t47 158.534
R184 VSS.n166 VSS.t53 156.078
R185 VSS.n159 VSS.t39 155.954
R186 VSS.n147 VSS.n146 141.745
R187 VSS VSS.t27 121.481
R188 VSS.n174 VSS.n8 99.9606
R189 VSS.n173 VSS.n172 93.8227
R190 VSS.n153 VSS.n9 93.748
R191 VSS.t37 VSS.n92 85.9264
R192 VSS.t43 VSS.t62 84.2917
R193 VSS.n126 VSS.t65 72.8576
R194 VSS.n61 VSS.t52 72.8576
R195 VSS.n173 VSS.t53 62.2564
R196 VSS.t39 VSS.n9 62.2068
R197 VSS.n71 VSS.t18 58.5719
R198 VSS.n23 VSS.t67 58.5719
R199 VSS.n175 VSS.n174 56.0836
R200 VSS.t44 VSS.t48 50.5752
R201 VSS.t23 VSS.t41 50.5752
R202 VSS.n125 VSS 43.9579
R203 VSS.n128 VSS.n125 34.6358
R204 VSS.n132 VSS.n30 34.6358
R205 VSS.n20 VSS.n18 30.8711
R206 VSS.n165 VSS.n164 30.8711
R207 VSS.n13 VSS.n12 30.8711
R208 VSS.n181 VSS.n180 30.8711
R209 VSS.n94 VSS.n45 26.9246
R210 VSS.n133 VSS.n132 25.6926
R211 VSS.n71 VSS.t42 25.4291
R212 VSS.n23 VSS.t49 25.4291
R213 VSS.n115 VSS.n114 25.224
R214 VSS.n114 VSS.n36 25.224
R215 VSS.n110 VSS.n109 25.224
R216 VSS.n109 VSS.n108 25.224
R217 VSS.n103 VSS.n39 25.224
R218 VSS.n103 VSS.n102 25.224
R219 VSS.n101 VSS.n100 25.224
R220 VSS.n100 VSS.n44 25.224
R221 VSS.n89 VSS.n88 25.224
R222 VSS.n83 VSS.n82 25.224
R223 VSS.n84 VSS.n83 25.224
R224 VSS.n81 VSS.n80 24.0946
R225 VSS.n146 VSS.t27 24.0161
R226 VSS.n126 VSS.t61 22.3257
R227 VSS.n61 VSS.t59 22.3257
R228 VSS.n88 VSS.n72 21.4593
R229 VSS.n80 VSS.n24 21.4593
R230 VSS.n110 VSS.n36 20.3299
R231 VSS.n102 VSS.n101 20.3299
R232 VSS.n116 VSS.n115 19.2926
R233 VSS.n89 VSS.n70 17.7867
R234 VSS.n107 VSS.n39 17.3181
R235 VSS.t7 VSS.t12 16.8587
R236 VSS.n108 VSS.n107 15.8123
R237 VSS.n45 VSS.n44 15.8123
R238 VSS.n56 VSS.n45 14.775
R239 VSS.n143 VSS.n142 14.775
R240 VSS.n82 VSS.n81 13.5534
R241 VSS.n124 VSS.n123 11.2844
R242 VSS.n176 VSS.n7 11.0382
R243 VSS.n8 VSS.n7 11.0382
R244 VSS.n6 VSS.n5 11.0382
R245 VSS.n171 VSS.n170 11.0382
R246 VSS.n172 VSS.n171 11.0382
R247 VSS.n168 VSS.n167 11.0382
R248 VSS.n167 VSS.n166 11.0382
R249 VSS.n155 VSS.n154 11.0382
R250 VSS.n154 VSS.n153 11.0382
R251 VSS.n158 VSS.n157 11.0382
R252 VSS.n159 VSS.n158 11.0382
R253 VSS.n148 VSS.n147 11.0382
R254 VSS.n151 VSS.n150 11.0382
R255 VSS.n152 VSS.n151 11.0382
R256 VSS.n21 VSS.n20 10.9181
R257 VSS.n164 VSS.n162 10.9181
R258 VSS.n15 VSS.n13 10.9181
R259 VSS.n180 VSS.n4 10.9181
R260 VSS.n19 VSS.n18 10.4476
R261 VSS.n165 VSS.n163 10.4476
R262 VSS.n14 VSS.n12 10.4476
R263 VSS.n182 VSS.n181 10.4476
R264 VSS.n84 VSS.n72 10.1652
R265 VSS.n51 VSS.n50 9.70901
R266 VSS.n123 VSS.n122 9.70901
R267 VSS.n63 VSS.n62 9.70901
R268 VSS.n127 VSS.n30 9.41227
R269 VSS.n134 VSS.n133 9.3005
R270 VSS.n136 VSS.n135 9.3005
R271 VSS.n76 VSS.n24 9.3005
R272 VSS.n81 VSS.n75 9.3005
R273 VSS.n86 VSS.n72 9.3005
R274 VSS.n65 VSS.n60 9.3005
R275 VSS.n68 VSS.n67 9.3005
R276 VSS.n70 VSS.n69 9.3005
R277 VSS.n90 VSS.n89 9.3005
R278 VSS.n88 VSS.n87 9.3005
R279 VSS.n85 VSS.n84 9.3005
R280 VSS.n83 VSS.n73 9.3005
R281 VSS.n82 VSS.n74 9.3005
R282 VSS.n80 VSS.n79 9.3005
R283 VSS.n143 VSS.n25 9.3005
R284 VSS.n142 VSS.n141 9.3005
R285 VSS.n140 VSS.n139 9.3005
R286 VSS.n132 VSS.n131 9.3005
R287 VSS.n130 VSS.n30 9.3005
R288 VSS.n129 VSS.n128 9.3005
R289 VSS.n125 VSS.n31 9.3005
R290 VSS.n95 VSS.n94 9.3005
R291 VSS.n98 VSS.n44 9.3005
R292 VSS.n102 VSS.n42 9.3005
R293 VSS.n107 VSS.n106 9.3005
R294 VSS.n108 VSS.n38 9.3005
R295 VSS.n112 VSS.n36 9.3005
R296 VSS.n117 VSS.n116 9.3005
R297 VSS.n120 VSS.n119 9.3005
R298 VSS.n121 VSS.n32 9.3005
R299 VSS.n115 VSS.n35 9.3005
R300 VSS.n114 VSS.n113 9.3005
R301 VSS.n111 VSS.n110 9.3005
R302 VSS.n109 VSS.n37 9.3005
R303 VSS.n105 VSS.n39 9.3005
R304 VSS.n104 VSS.n103 9.3005
R305 VSS.n101 VSS.n43 9.3005
R306 VSS.n100 VSS.n99 9.3005
R307 VSS.n53 VSS.n52 9.3005
R308 VSS.n54 VSS.n46 9.3005
R309 VSS.n57 VSS.n56 9.3005
R310 VSS.n97 VSS.n45 9.3005
R311 VSS.n184 VSS.n183 8.45078
R312 VSS.n186 VSS.n1 8.30267
R313 VSS.n185 VSS.n2 7.97888
R314 VSS.n184 VSS.n3 7.97601
R315 VSS.n19 VSS.n1 7.16724
R316 VSS.n163 VSS.n3 7.16724
R317 VSS.n14 VSS.n2 7.16724
R318 VSS.n183 VSS.n182 7.16724
R319 VSS.n143 VSS.n24 7.15344
R320 VSS.n96 VSS.n91 6.50373
R321 VSS.n128 VSS.n127 6.4005
R322 VSS.n54 VSS.n53 6.26433
R323 VSS.n121 VSS.n120 6.26433
R324 VSS.n55 VSS.n54 5.85582
R325 VSS.n122 VSS.n121 5.85582
R326 VSS.n67 VSS.n59 5.85582
R327 VSS.n136 VSS.n27 5.85582
R328 VSS.n139 VSS.n137 5.85582
R329 VSS.n97 VSS.n96 4.788
R330 VSS.n21 VSS.n19 4.73093
R331 VSS.n163 VSS.n162 4.73093
R332 VSS.n15 VSS.n14 4.73093
R333 VSS.n182 VSS.n4 4.73093
R334 VSS.n96 VSS.n95 4.50726
R335 VSS.n187 VSS 4.01425
R336 VSS.n66 VSS.n65 3.40476
R337 VSS.n53 VSS.n47 3.13241
R338 VSS.n120 VSS.n33 3.13241
R339 VSS.n65 VSS.n64 3.13241
R340 VSS.n139 VSS.n138 3.13241
R341 VSS.n77 VSS.n28 2.88636
R342 VSS.n67 VSS.n66 2.86007
R343 VSS.n50 VSS.n47 2.7239
R344 VSS.n34 VSS.n33 2.7239
R345 VSS.n64 VSS.n63 2.7239
R346 VSS.n138 VSS.n26 2.7239
R347 VSS.n118 VSS.n0 1.753
R348 VSS.n49 VSS.n48 1.753
R349 VSS.n78 VSS.n77 1.21169
R350 VSS.n48 VSS.n0 0.761313
R351 VSS.n188 VSS.n0 0.591917
R352 VSS.n77 VSS 0.531208
R353 VSS.n188 VSS.n187 0.506165
R354 VSS.n185 VSS.n184 0.467019
R355 VSS.n56 VSS.n55 0.409011
R356 VSS.n116 VSS.n34 0.409011
R357 VSS.n70 VSS.n59 0.409011
R358 VSS.n133 VSS.n27 0.409011
R359 VSS.n137 VSS.n136 0.409011
R360 VSS.n142 VSS.n26 0.409011
R361 VSS.n187 VSS.n186 0.198729
R362 VSS.n95 VSS.n58 0.1255
R363 VSS.n129 VSS.n31 0.120292
R364 VSS.n130 VSS.n129 0.120292
R365 VSS.n131 VSS.n130 0.120292
R366 VSS.n141 VSS.n140 0.120292
R367 VSS.n74 VSS.n73 0.120292
R368 VSS.n85 VSS.n73 0.120292
R369 VSS.n87 VSS.n86 0.120292
R370 VSS.n69 VSS.n68 0.120292
R371 VSS.n68 VSS.n60 0.120292
R372 VSS.n62 VSS.n60 0.120292
R373 VSS.n123 VSS.n32 0.120292
R374 VSS.n119 VSS.n32 0.120292
R375 VSS.n113 VSS.n35 0.120292
R376 VSS.n113 VSS.n112 0.120292
R377 VSS.n111 VSS.n37 0.120292
R378 VSS.n38 VSS.n37 0.120292
R379 VSS.n105 VSS.n104 0.120292
R380 VSS.n104 VSS.n42 0.120292
R381 VSS.n99 VSS.n43 0.120292
R382 VSS.n99 VSS.n98 0.120292
R383 VSS.n57 VSS.n46 0.120292
R384 VSS.n52 VSS.n51 0.120292
R385 VSS.n140 VSS 0.0981562
R386 VSS VSS.n124 0.09425
R387 VSS.n48 VSS 0.0881354
R388 VSS.n186 VSS.n185 0.0766574
R389 VSS.n52 VSS.n49 0.0721146
R390 VSS.n79 VSS.n78 0.0708125
R391 VSS.n1 VSS 0.064875
R392 VSS.n3 VSS 0.064875
R393 VSS.n2 VSS 0.064875
R394 VSS.n183 VSS 0.063625
R395 VSS.n119 VSS.n118 0.0616979
R396 VSS.n131 VSS 0.0603958
R397 VSS.n135 VSS 0.0603958
R398 VSS VSS.n25 0.0603958
R399 VSS.n76 VSS 0.0603958
R400 VSS.n79 VSS 0.0603958
R401 VSS VSS.n75 0.0603958
R402 VSS VSS.n74 0.0603958
R403 VSS.n86 VSS 0.0603958
R404 VSS.n87 VSS 0.0603958
R405 VSS.n69 VSS 0.0603958
R406 VSS.n35 VSS 0.0603958
R407 VSS VSS.n111 0.0603958
R408 VSS.n106 VSS 0.0603958
R409 VSS VSS.n105 0.0603958
R410 VSS.n43 VSS 0.0603958
R411 VSS VSS.n97 0.0603958
R412 VSS VSS.n57 0.0603958
R413 VSS.n91 VSS 0.0590938
R414 VSS.n118 VSS.n117 0.0590938
R415 VSS.n78 VSS.n76 0.0499792
R416 VSS.n49 VSS.n46 0.0486771
R417 VSS VSS.n28 0.0460729
R418 VSS VSS.n134 0.0343542
R419 VSS VSS.n25 0.0330521
R420 VSS.n106 VSS 0.0330521
R421 VSS.n58 VSS 0.03175
R422 VSS VSS.n188 0.0292529
R423 VSS.t40 VSS.n175 0.0270008
R424 VSS.n135 VSS 0.0226354
R425 VSS.n141 VSS 0.0226354
R426 VSS.n75 VSS 0.0226354
R427 VSS VSS.n85 0.0226354
R428 VSS.n90 VSS 0.0226354
R429 VSS.n62 VSS 0.0226354
R430 VSS.n117 VSS 0.0226354
R431 VSS.n112 VSS 0.0226354
R432 VSS VSS.n38 0.0226354
R433 VSS VSS.n42 0.0226354
R434 VSS.n98 VSS 0.0226354
R435 VSS.n51 VSS 0.0226354
R436 VSS.n134 VSS.n28 0.0148229
R437 VSS.n124 VSS.n31 0.00440625
R438 VSS.n91 VSS.n90 0.00180208
R439 VSS.n97 VSS.n58 0.00180208
R440 VDD.n177 VDD.n175 8629.41
R441 VDD.n180 VDD.n174 8629.41
R442 VDD.n161 VDD.n160 8629.41
R443 VDD.n163 VDD.n158 8629.41
R444 VDD.n144 VDD.n143 8629.41
R445 VDD.n146 VDD.n141 8629.41
R446 VDD.n127 VDD.n125 8629.41
R447 VDD.n130 VDD.n124 8629.41
R448 VDD.n176 VDD.n173 920.471
R449 VDD.n164 VDD.n157 920.471
R450 VDD.n147 VDD.n140 920.471
R451 VDD.n126 VDD.n123 920.471
R452 VDD.n182 VDD.n173 914.447
R453 VDD.n166 VDD.n164 914.447
R454 VDD.n149 VDD.n147 914.447
R455 VDD.n132 VDD.n123 914.447
R456 VDD.t7 VDD.n59 804.731
R457 VDD.n61 VDD.t7 751.692
R458 VDD.n33 VDD.t64 671.408
R459 VDD.n22 VDD.t27 671.408
R460 VDD VDD.t6 630.375
R461 VDD.n92 VDD.n91 602.456
R462 VDD.n114 VDD.n2 602.456
R463 VDD.n6 VDD.n5 585
R464 VDD.n8 VDD.n7 585
R465 VDD.n176 VDD.n120 480.764
R466 VDD.n157 VDD.n155 480.764
R467 VDD.n140 VDD.n138 480.764
R468 VDD.n126 VDD.n122 480.764
R469 VDD VDD.t9 458.724
R470 VDD.t6 VDD 458.724
R471 VDD.n54 VDD.t41 420.25
R472 VDD.n50 VDD.t10 388.656
R473 VDD.n85 VDD.t11 388.656
R474 VDD.n63 VDD.t8 388.656
R475 VDD.n36 VDD.t4 388.656
R476 VDD.n45 VDD.t5 388.656
R477 VDD.n10 VDD.t13 388.656
R478 VDD.n15 VDD.t14 388.656
R479 VDD.n184 VDD.n120 379.2
R480 VDD.n168 VDD.n155 379.2
R481 VDD.n151 VDD.n138 379.2
R482 VDD.n134 VDD.n122 379.2
R483 VDD VDD.t15 369.938
R484 VDD VDD.t67 369.938
R485 VDD.n39 VDD.n32 322.329
R486 VDD.n17 VDD.n13 322.329
R487 VDD.n96 VDD.n94 259.697
R488 VDD.n72 VDD.t68 255.905
R489 VDD.n77 VDD.t16 255.905
R490 VDD.n53 VDD.t42 255.905
R491 VDD.n93 VDD.t52 255.905
R492 VDD.n43 VDD.t23 254.475
R493 VDD.n68 VDD.t18 252.95
R494 VDD.n73 VDD.t70 252.95
R495 VDD.n78 VDD.t44 252.95
R496 VDD.n113 VDD.t34 252.95
R497 VDD.n92 VDD.t60 251.516
R498 VDD.n3 VDD.t32 250.724
R499 VDD.n1 VDD.t36 250.724
R500 VDD.t41 VDD.t43 248.599
R501 VDD.t15 VDD.t69 248.599
R502 VDD.t67 VDD.t17 248.599
R503 VDD.n108 VDD.t30 248.219
R504 VDD.n95 VDD.t54 248.219
R505 VDD.n54 VDD 221.964
R506 VDD.n61 VDD.t74 215.827
R507 VDD.n43 VDD.n42 213.119
R508 VDD.n83 VDD.n54 213.119
R509 VDD.n51 VDD.t72 210.964
R510 VDD.n37 VDD.t73 210.964
R511 VDD.n12 VDD.t71 210.964
R512 VDD.n103 VDD.n102 209.368
R513 VDD.t43 VDD 198.287
R514 VDD.t69 VDD 198.287
R515 VDD.t17 VDD 198.287
R516 VDD.n105 VDD.n104 183.673
R517 VDD VDD.t61 182.952
R518 VDD VDD.n103 182.952
R519 VDD.t55 VDD 182.952
R520 VDD.n7 VDD.n6 159.476
R521 VDD.n94 VDD.t2 157.014
R522 VDD.t31 VDD.t19 154.417
R523 VDD.t47 VDD.t1 147.703
R524 VDD.t65 VDD.t63 140.989
R525 VDD.t1 VDD.t53 140.989
R526 VDD.t33 VDD.t35 140.989
R527 VDD.t29 VDD.t31 140.989
R528 VDD.t26 VDD.t49 140.989
R529 VDD.n94 VDD.t46 137.079
R530 VDD.n42 VDD 125.883
R531 VDD.n104 VDD 125.883
R532 VDD.n32 VDD.t66 116.341
R533 VDD.n13 VDD.t50 116.341
R534 VDD.t63 VDD 112.457
R535 VDD.t53 VDD 112.457
R536 VDD VDD.t26 112.457
R537 VDD VDD.t37 109.1
R538 VDD.t3 VDD.t65 104.064
R539 VDD.t49 VDD.t12 104.064
R540 VDD.t24 VDD 102.385
R541 VDD.t22 VDD 99.0288
R542 VDD.n91 VDD.t48 96.1553
R543 VDD.n2 VDD.t40 96.1553
R544 VDD VDD.t39 92.315
R545 VDD.n6 VDD.t20 86.7743
R546 VDD.n42 VDD.t22 83.9228
R547 VDD.n103 VDD.t45 80.5659
R548 VDD.t61 VDD.t3 77.209
R549 VDD.t12 VDD.t55 77.209
R550 VDD.n7 VDD.t38 66.8398
R551 VDD.n183 VDD.n182 66.6358
R552 VDD.n167 VDD.n166 66.6358
R553 VDD.n150 VDD.n149 66.6358
R554 VDD.n133 VDD.n132 66.6358
R555 VDD.n91 VDD.t25 63.3219
R556 VDD.n2 VDD.t58 63.3219
R557 VDD VDD.t47 62.103
R558 VDD.n177 VDD.n176 61.6672
R559 VDD.n181 VDD.n180 61.6672
R560 VDD.n161 VDD.n157 61.6672
R561 VDD.n158 VDD.n156 61.6672
R562 VDD.n144 VDD.n140 61.6672
R563 VDD.n141 VDD.n139 61.6672
R564 VDD.n127 VDD.n126 61.6672
R565 VDD.n131 VDD.n130 61.6672
R566 VDD.n178 VDD.n177 60.9564
R567 VDD.n180 VDD.n179 60.9564
R568 VDD.n162 VDD.n161 60.9564
R569 VDD.n159 VDD.n158 60.9564
R570 VDD.n145 VDD.n144 60.9564
R571 VDD.n142 VDD.n141 60.9564
R572 VDD.n128 VDD.n127 60.9564
R573 VDD.n130 VDD.n129 60.9564
R574 VDD.n167 VDD.n156 60.6123
R575 VDD.n150 VDD.n139 60.6123
R576 VDD.n183 VDD.n172 59.4829
R577 VDD.n133 VDD.n121 58.7299
R578 VDD.t19 VDD 55.3892
R579 VDD.t57 VDD 52.0323
R580 VDD VDD.t45 45.3185
R581 VDD VDD.t59 41.9616
R582 VDD.n178 VDD.n174 38.5759
R583 VDD.n179 VDD.n175 38.5759
R584 VDD.n163 VDD.n162 38.5759
R585 VDD.n160 VDD.n159 38.5759
R586 VDD.n146 VDD.n145 38.5759
R587 VDD.n143 VDD.n142 38.5759
R588 VDD.n128 VDD.n124 38.5759
R589 VDD.n129 VDD.n125 38.5759
R590 VDD.n102 VDD.n24 34.6358
R591 VDD.n102 VDD.n25 34.6358
R592 VDD.n107 VDD.n106 34.6358
R593 VDD.n104 VDD 28.5341
R594 VDD.n32 VDD.t62 28.4453
R595 VDD.n13 VDD.t56 28.4453
R596 VDD.n109 VDD.n108 28.3534
R597 VDD.n106 VDD.n105 25.6953
R598 VDD.n72 VDD.n57 25.224
R599 VDD.n68 VDD.n57 25.224
R600 VDD.n77 VDD.n56 25.224
R601 VDD.n73 VDD.n56 25.224
R602 VDD.n79 VDD.n53 25.224
R603 VDD.n79 VDD.n78 25.224
R604 VDD.n97 VDD.n93 25.224
R605 VDD.n43 VDD.n27 23.7181
R606 VDD VDD.n33 23.252
R607 VDD.n92 VDD.n27 21.4593
R608 VDD.n73 VDD.n72 20.3299
R609 VDD.n78 VDD.n77 20.3299
R610 VDD.t39 VDD.t33 20.1418
R611 VDD.n114 VDD.n1 19.9534
R612 VDD.n113 VDD.n112 19.8181
R613 VDD.n83 VDD.n53 17.3181
R614 VDD.n96 VDD.n95 17.3181
R615 VDD.n93 VDD.n92 16.5652
R616 VDD.n97 VDD.n96 16.5652
R617 VDD.n68 VDD.n67 15.8123
R618 VDD.n84 VDD.n83 14.2735
R619 VDD.n44 VDD.n43 14.2735
R620 VDD.n106 VDD.n22 13.9299
R621 VDD.n119 VDD.n118 13.6791
R622 VDD.n114 VDD.n113 13.5534
R623 VDD.n49 VDD.n48 11.4366
R624 VDD.n185 VDD.n184 11.3235
R625 VDD.n169 VDD.n168 11.3235
R626 VDD.n152 VDD.n151 11.3235
R627 VDD.n135 VDD.n134 11.3235
R628 VDD.n105 VDD.n23 11.2937
R629 VDD.n89 VDD.n88 11.2737
R630 VDD.t59 VDD.t24 10.0712
R631 VDD.n63 VDD.n60 9.60526
R632 VDD.n50 VDD.n49 9.60526
R633 VDD.n15 VDD.n14 9.60526
R634 VDD.n52 VDD.n28 9.3005
R635 VDD.n87 VDD.n86 9.3005
R636 VDD.n84 VDD.n29 9.3005
R637 VDD.n83 VDD.n82 9.3005
R638 VDD.n78 VDD.n55 9.3005
R639 VDD.n74 VDD.n73 9.3005
R640 VDD.n69 VDD.n68 9.3005
R641 VDD.n65 VDD.n64 9.3005
R642 VDD.n70 VDD.n57 9.3005
R643 VDD.n72 VDD.n71 9.3005
R644 VDD.n75 VDD.n56 9.3005
R645 VDD.n77 VDD.n76 9.3005
R646 VDD.n80 VDD.n79 9.3005
R647 VDD.n81 VDD.n53 9.3005
R648 VDD.n110 VDD.n109 9.3005
R649 VDD.n115 VDD.n114 9.3005
R650 VDD.n99 VDD.n24 9.3005
R651 VDD.n92 VDD.n90 9.3005
R652 VDD.n43 VDD.n41 9.3005
R653 VDD.n35 VDD.n34 9.3005
R654 VDD.n38 VDD.n30 9.3005