* NGSPICE file created from mux8to1_parax.ext - technology: sky130A

.subckt mux8to1_parax select1 select2 A1 A3 A2 A4 Z A8 select0 A7 A6 VDD A5 VSS
X0 a_5645_5909# a_5645_6085# a_5671_6037# VSS.t21 sky130_fd_pr__nfet_01v8 ad=0.1092 pd=1.36 as=0.0504 ps=0.66 w=0.42 l=0.15
X1 VSS.t1 select1.t0 a_5645_6085# VSS.t0 sky130_fd_pr__nfet_01v8 ad=0.1092 pd=1.36 as=0.1092 ps=1.36 w=0.42 l=0.15
X2 x5.A select2.t0 Z.t1 VDD.t5 sky130_fd_pr__pfet_01v8_lvt ad=2.9 pd=20.58 as=2.9 ps=20.58 w=10 l=0.35
X3 x4.A x3.GN1.t2 A5.t2 VSS.t22 sky130_fd_pr__nfet_01v8_lvt ad=2.32 pd=16.58 as=2.32 ps=16.58 w=8 l=0.35
X4 VSS.t49 a_5645_6461# x3.GN3 VSS.t48 sky130_fd_pr__nfet_01v8 ad=0.1013 pd=0.99 as=0.169 ps=1.82 w=0.65 l=0.15
X5 x3.GP4.t3 x3.GN4.t2 VSS.t30 VSS.t29 sky130_fd_pr__nfet_01v8 ad=0.08775 pd=0.92 as=0.169 ps=1.82 w=0.65 l=0.15
X6 x5.GN select2.t1 VDD.t4 VDD.t3 sky130_fd_pr__pfet_01v8_hvt ad=0.135 pd=1.27 as=0.26 ps=2.52 w=1 l=0.15
X7 VSS.t63 a_5645_5909# x3.GN2 VSS.t62 sky130_fd_pr__nfet_01v8 ad=0.1013 pd=0.99 as=0.169 ps=1.82 w=0.65 l=0.15
X8 VDD.t78 select0.t0 x1.nSEL0 VDD.t77 sky130_fd_pr__pfet_01v8_hvt ad=0.26 pd=2.52 as=0.135 ps=1.27 w=1 l=0.15
X9 x5.A select2.t2 Z.t0 VDD.t2 sky130_fd_pr__pfet_01v8_lvt ad=2.9 pd=20.58 as=2.9 ps=20.58 w=10 l=0.35
X10 A1.t1 x3.GP1.t4 x5.A VDD.t45 sky130_fd_pr__pfet_01v8_lvt ad=2.9 pd=20.58 as=2.9 ps=20.58 w=10 l=0.35
X11 x5.A x3.GN2 A2.t2 VSS.t31 sky130_fd_pr__nfet_01v8_lvt ad=2.32 pd=16.58 as=2.32 ps=16.58 w=8 l=0.35
X12 VDD.t72 VSS.t76 VDD.t71 VDD.t70 sky130_fd_pr__pfet_01v8_hvt ad=0.2262 pd=2.26 as=0 ps=0 w=0.87 l=1.05
X13 x4.A x5.GN Z.t7 VDD.t76 sky130_fd_pr__pfet_01v8_lvt ad=2.9 pd=20.58 as=2.9 ps=20.58 w=10 l=0.35
X14 x1.nSEL0 select0.t1 VDD.t19 VDD.t18 sky130_fd_pr__pfet_01v8_hvt ad=0.135 pd=1.27 as=0.26 ps=2.52 w=1 l=0.15
X15 x5.A x3.GN4.t3 A4.t1 VSS.t57 sky130_fd_pr__nfet_01v8_lvt ad=2.32 pd=16.58 as=2.32 ps=16.58 w=8 l=0.35
X16 VSS.t41 VDD.t79 VSS.t40 VSS.t39 sky130_fd_pr__nfet_01v8 ad=0.143 pd=1.62 as=0 ps=0 w=0.55 l=1.05
X17 a_5671_6037# select0.t2 VSS.t43 VSS.t42 sky130_fd_pr__nfet_01v8 ad=0.0504 pd=0.66 as=0.1013 ps=0.99 w=0.42 l=0.15
X18 A7.t3 x3.GP3 x4.A VDD.t41 sky130_fd_pr__pfet_01v8_lvt ad=2.9 pd=20.58 as=2.9 ps=20.58 w=10 l=0.35
X19 x4.A x5.GN Z.t6 VDD.t75 sky130_fd_pr__pfet_01v8_lvt ad=2.9 pd=20.58 as=2.9 ps=20.58 w=10 l=0.35
X20 Z.t5 x5.GN x5.A VSS.t74 sky130_fd_pr__nfet_01v8_lvt ad=2.32 pd=16.58 as=2.32 ps=16.58 w=8 l=0.35
X21 A3.t3 x3.GP3 x5.A VDD.t42 sky130_fd_pr__pfet_01v8_lvt ad=2.9 pd=20.58 as=2.9 ps=20.58 w=10 l=0.35
X22 VSS.t56 select1.t1 x1.nSEL1 VSS.t55 sky130_fd_pr__nfet_01v8 ad=0.169 pd=1.82 as=0.08775 ps=0.92 w=0.65 l=0.15
X23 x3.GP4.t1 x3.GN4.t4 VDD.t24 VDD.t23 sky130_fd_pr__pfet_01v8_hvt ad=0.135 pd=1.27 as=0.26 ps=2.52 w=1 l=0.15
X24 Z.t3 select2.t3 x4.A VSS.t75 sky130_fd_pr__nfet_01v8_lvt ad=2.32 pd=16.58 as=2.32 ps=16.58 w=8 l=0.35
X25 VSS.t45 a_5645_7149# x3.GN4.t1 VSS.t44 sky130_fd_pr__nfet_01v8 ad=0.1118 pd=1.04 as=0.182 ps=1.86 w=0.65 l=0.15
X26 VDD.t16 a_5645_6637# a_5645_6461# VDD.t15 sky130_fd_pr__pfet_01v8_hvt ad=0.0714 pd=0.76 as=0.0609 ps=0.71 w=0.42 l=0.15
X27 x4.A x3.GN2 A6.t2 VSS.t36 sky130_fd_pr__nfet_01v8_lvt ad=2.32 pd=16.58 as=2.32 ps=16.58 w=8 l=0.35
X28 a_5645_7149# select1.t2 a_5699_7287# VSS.t64 sky130_fd_pr__nfet_01v8 ad=0.1176 pd=1.4 as=0.0567 ps=0.69 w=0.42 l=0.15
X29 x4.A x3.GN1.t3 A5.t1 VSS.t22 sky130_fd_pr__nfet_01v8_lvt ad=2.32 pd=16.58 as=2.32 ps=16.58 w=8 l=0.35
X30 a_5645_6637# select0.t3 VDD.t28 VDD.t27 sky130_fd_pr__pfet_01v8_hvt ad=0.1092 pd=1.36 as=0.0714 ps=0.76 w=0.42 l=0.15
X31 VSS.t16 x3.GN1.t4 x3.GP1.t3 VSS.t15 sky130_fd_pr__nfet_01v8 ad=0.169 pd=1.82 as=0.08775 ps=0.92 w=0.65 l=0.15
X32 a_5699_7287# select0.t4 VSS.t61 VSS.t60 sky130_fd_pr__nfet_01v8 ad=0.0567 pd=0.69 as=0.1118 ps=1.04 w=0.42 l=0.15
X33 VSS.t68 VDD.t80 VSS.t67 VSS.t66 sky130_fd_pr__nfet_01v8 ad=0.143 pd=1.62 as=0 ps=0 w=0.55 l=1.05
X34 x5.A x3.GN3 A3.t1 VSS.t10 sky130_fd_pr__nfet_01v8_lvt ad=2.32 pd=16.58 as=2.32 ps=16.58 w=8 l=0.35
X35 A8.t3 x3.GP4.t4 x4.A VDD.t22 sky130_fd_pr__pfet_01v8_lvt ad=2.9 pd=20.58 as=2.9 ps=20.58 w=10 l=0.35
X36 A1.t0 x3.GP1.t5 x5.A VDD.t45 sky130_fd_pr__pfet_01v8_lvt ad=2.9 pd=20.58 as=2.9 ps=20.58 w=10 l=0.35
X37 a_5645_6461# a_5645_6637# a_5671_6589# VSS.t17 sky130_fd_pr__nfet_01v8 ad=0.1092 pd=1.36 as=0.0504 ps=0.66 w=0.42 l=0.15
X38 x5.A x3.GN4.t5 A4.t0 VSS.t57 sky130_fd_pr__nfet_01v8_lvt ad=2.32 pd=16.58 as=2.32 ps=16.58 w=8 l=0.35
X39 VSS.t12 x3.GN3 x3.GP3 VSS.t11 sky130_fd_pr__nfet_01v8 ad=0.169 pd=1.82 as=0.08775 ps=0.92 w=0.65 l=0.15
X40 x3.GP1.t2 x3.GN1.t5 VSS.t6 VSS.t5 sky130_fd_pr__nfet_01v8 ad=0.08775 pd=0.92 as=0.169 ps=1.82 w=0.65 l=0.15
X41 VSS.t24 select0.t5 a_5645_6637# VSS.t23 sky130_fd_pr__nfet_01v8 ad=0.1092 pd=1.36 as=0.1092 ps=1.36 w=0.42 l=0.15
X42 Z.t4 x5.GN x5.A VSS.t73 sky130_fd_pr__nfet_01v8_lvt ad=2.32 pd=16.58 as=2.32 ps=16.58 w=8 l=0.35
X43 VDD.t58 select1.t3 x1.nSEL1 VDD.t57 sky130_fd_pr__pfet_01v8_hvt ad=0.26 pd=2.52 as=0.135 ps=1.27 w=1 l=0.15
X44 VDD.t56 select1.t4 a_5645_7149# VDD.t55 sky130_fd_pr__pfet_01v8_hvt ad=0.1176 pd=1.4 as=0.0567 ps=0.69 w=0.42 l=0.15
X45 A5.t3 x3.GP1.t6 x4.A VDD.t6 sky130_fd_pr__pfet_01v8_lvt ad=2.9 pd=20.58 as=2.9 ps=20.58 w=10 l=0.35
X46 VDD.t69 VSS.t77 VDD.t68 VDD.t67 sky130_fd_pr__pfet_01v8_hvt ad=0.2262 pd=2.26 as=0 ps=0 w=0.87 l=1.05
X47 Z.t2 select2.t4 x4.A VSS.t65 sky130_fd_pr__nfet_01v8_lvt ad=2.32 pd=16.58 as=2.32 ps=16.58 w=8 l=0.35
X48 VDD.t38 a_5645_5493# x3.GN1.t0 VDD.t37 sky130_fd_pr__pfet_01v8_hvt ad=0.16655 pd=1.39 as=0.475 ps=2.95 w=1 l=0.15
X49 a_5645_7149# select0.t6 VDD.t49 VDD.t48 sky130_fd_pr__pfet_01v8_hvt ad=0.0567 pd=0.69 as=0.16655 ps=1.39 w=0.42 l=0.15
X50 VDD.t74 x3.GN1.t6 x3.GP1.t1 VDD.t73 sky130_fd_pr__pfet_01v8_hvt ad=0.26 pd=2.52 as=0.135 ps=1.27 w=1 l=0.15
X51 x4.A x3.GN3 A7.t1 VSS.t7 sky130_fd_pr__nfet_01v8_lvt ad=2.32 pd=16.58 as=2.32 ps=16.58 w=8 l=0.35
X52 x4.A x3.GN2 A6.t1 VSS.t36 sky130_fd_pr__nfet_01v8_lvt ad=2.32 pd=16.58 as=2.32 ps=16.58 w=8 l=0.35
X53 A4.t3 x3.GP4.t5 x5.A VDD.t10 sky130_fd_pr__pfet_01v8_lvt ad=2.9 pd=20.58 as=2.9 ps=20.58 w=10 l=0.35
X54 VSS.t70 select2.t5 x5.GN VSS.t69 sky130_fd_pr__nfet_01v8 ad=0.169 pd=1.82 as=0.08775 ps=0.92 w=0.65 l=0.15
X55 a_5645_5493# x1.nSEL0 a_5699_5631# VSS.t54 sky130_fd_pr__nfet_01v8 ad=0.1176 pd=1.4 as=0.0567 ps=0.69 w=0.42 l=0.15
X56 x1.nSEL1 select1.t5 VSS.t38 VSS.t37 sky130_fd_pr__nfet_01v8 ad=0.08775 pd=0.92 as=0.169 ps=1.82 w=0.65 l=0.15
X57 x5.A x3.GN1.t7 A1.t3 VSS.t26 sky130_fd_pr__nfet_01v8_lvt ad=2.32 pd=16.58 as=2.32 ps=16.58 w=8 l=0.35
X58 VDD.t14 x3.GN3 x3.GP3 VDD.t13 sky130_fd_pr__pfet_01v8_hvt ad=0.26 pd=2.52 as=0.135 ps=1.27 w=1 l=0.15
X59 x3.GP1.t0 x3.GN1.t8 VDD.t26 VDD.t25 sky130_fd_pr__pfet_01v8_hvt ad=0.135 pd=1.27 as=0.26 ps=2.52 w=1 l=0.15
X60 a_5645_5909# select0.t7 VDD.t9 VDD.t8 sky130_fd_pr__pfet_01v8_hvt ad=0.0609 pd=0.71 as=0.2279 ps=1.74 w=0.42 l=0.15
X61 x5.A x3.GN3 A3.t0 VSS.t10 sky130_fd_pr__nfet_01v8_lvt ad=2.32 pd=16.58 as=2.32 ps=16.58 w=8 l=0.35
X62 A2.t3 x3.GP2.t4 x5.A VDD.t17 sky130_fd_pr__pfet_01v8_lvt ad=2.9 pd=20.58 as=2.9 ps=20.58 w=10 l=0.35
X63 x5.A x3.GN1.t9 A1.t2 VSS.t26 sky130_fd_pr__nfet_01v8_lvt ad=2.32 pd=16.58 as=2.32 ps=16.58 w=8 l=0.35
X64 A3.t2 x3.GP3 x5.A VDD.t42 sky130_fd_pr__pfet_01v8_lvt ad=2.9 pd=20.58 as=2.9 ps=20.58 w=10 l=0.35
X65 VDD.t66 VSS.t78 VDD.t65 VDD.t64 sky130_fd_pr__pfet_01v8_hvt ad=0.2262 pd=2.26 as=0 ps=0 w=0.87 l=1.05
X66 a_5699_5631# x1.nSEL1 VSS.t53 VSS.t52 sky130_fd_pr__nfet_01v8 ad=0.0567 pd=0.69 as=0.1118 ps=1.04 w=0.42 l=0.15
X67 VSS.t20 VDD.t81 VSS.t19 VSS.t18 sky130_fd_pr__nfet_01v8 ad=0.143 pd=1.62 as=0 ps=0 w=0.55 l=1.05
X68 x4.A x3.GN4.t6 A8.t1 VSS.t25 sky130_fd_pr__nfet_01v8_lvt ad=2.32 pd=16.58 as=2.32 ps=16.58 w=8 l=0.35
X69 VDD.t40 a_5645_6461# x3.GN3 VDD.t39 sky130_fd_pr__pfet_01v8_hvt ad=0.2279 pd=1.74 as=0.26 ps=2.52 w=1 l=0.15
X70 VSS.t35 x3.GN2 x3.GP2.t3 VSS.t34 sky130_fd_pr__nfet_01v8 ad=0.169 pd=1.82 as=0.08775 ps=0.92 w=0.65 l=0.15
X71 A6.t0 x3.GP2.t5 x4.A VDD.t7 sky130_fd_pr__pfet_01v8_lvt ad=2.9 pd=20.58 as=2.9 ps=20.58 w=10 l=0.35
X72 A5.t0 x3.GP1.t7 x4.A VDD.t6 sky130_fd_pr__pfet_01v8_lvt ad=2.9 pd=20.58 as=2.9 ps=20.58 w=10 l=0.35
X73 VDD.t47 x1.nSEL0 a_5645_5493# VDD.t46 sky130_fd_pr__pfet_01v8_hvt ad=0.1176 pd=1.4 as=0.0567 ps=0.69 w=0.42 l=0.15
X74 x3.GP2.t2 x3.GN2 VSS.t33 VSS.t32 sky130_fd_pr__nfet_01v8 ad=0.08775 pd=0.92 as=0.169 ps=1.82 w=0.65 l=0.15
X75 VSS.t14 x3.GN4.t7 x3.GP4.t2 VSS.t13 sky130_fd_pr__nfet_01v8 ad=0.169 pd=1.82 as=0.08775 ps=0.92 w=0.65 l=0.15
X76 VDD.t60 a_5645_5909# x3.GN2 VDD.t59 sky130_fd_pr__pfet_01v8_hvt ad=0.2279 pd=1.74 as=0.26 ps=2.52 w=1 l=0.15
X77 x3.GP3 x3.GN3 VSS.t9 VSS.t8 sky130_fd_pr__nfet_01v8 ad=0.08775 pd=0.92 as=0.169 ps=1.82 w=0.65 l=0.15
X78 A7.t2 x3.GP3 x4.A VDD.t41 sky130_fd_pr__pfet_01v8_lvt ad=2.9 pd=20.58 as=2.9 ps=20.58 w=10 l=0.35
X79 x1.nSEL1 select1.t6 VDD.t54 VDD.t53 sky130_fd_pr__pfet_01v8_hvt ad=0.135 pd=1.27 as=0.26 ps=2.52 w=1 l=0.15
X80 VDD.t1 select2.t6 x5.GN VDD.t0 sky130_fd_pr__pfet_01v8_hvt ad=0.26 pd=2.52 as=0.135 ps=1.27 w=1 l=0.15
X81 a_5671_6589# select1.t7 VSS.t72 VSS.t71 sky130_fd_pr__nfet_01v8 ad=0.0504 pd=0.66 as=0.1013 ps=0.99 w=0.42 l=0.15
X82 x4.A x3.GN3 A7.t0 VSS.t7 sky130_fd_pr__nfet_01v8_lvt ad=2.32 pd=16.58 as=2.32 ps=16.58 w=8 l=0.35
X83 A8.t2 x3.GP4.t6 x4.A VDD.t22 sky130_fd_pr__pfet_01v8_lvt ad=2.9 pd=20.58 as=2.9 ps=20.58 w=10 l=0.35
X84 A4.t2 x3.GP4.t7 x5.A VDD.t10 sky130_fd_pr__pfet_01v8_lvt ad=2.9 pd=20.58 as=2.9 ps=20.58 w=10 l=0.35
X85 a_5645_5493# x1.nSEL1 VDD.t44 VDD.t43 sky130_fd_pr__pfet_01v8_hvt ad=0.0567 pd=0.69 as=0.16655 ps=1.39 w=0.42 l=0.15
X86 VSS.t47 a_5645_5493# x3.GN1.t1 VSS.t46 sky130_fd_pr__nfet_01v8 ad=0.1118 pd=1.04 as=0.182 ps=1.86 w=0.65 l=0.15
X87 VSS.t4 VDD.t82 VSS.t3 VSS.t2 sky130_fd_pr__nfet_01v8 ad=0.143 pd=1.62 as=0 ps=0 w=0.55 l=1.05
X88 x5.A x3.GN2 A2.t1 VSS.t31 sky130_fd_pr__nfet_01v8_lvt ad=2.32 pd=16.58 as=2.32 ps=16.58 w=8 l=0.35
X89 VDD.t32 x3.GN2 x3.GP2.t1 VDD.t31 sky130_fd_pr__pfet_01v8_hvt ad=0.26 pd=2.52 as=0.135 ps=1.27 w=1 l=0.15
X90 A2.t0 x3.GP2.t6 x5.A VDD.t17 sky130_fd_pr__pfet_01v8_lvt ad=2.9 pd=20.58 as=2.9 ps=20.58 w=10 l=0.35
X91 VDD.t36 a_5645_7149# x3.GN4.t0 VDD.t35 sky130_fd_pr__pfet_01v8_hvt ad=0.16655 pd=1.39 as=0.475 ps=2.95 w=1 l=0.15
X92 x5.GN select2.t7 VSS.t28 VSS.t27 sky130_fd_pr__nfet_01v8 ad=0.08775 pd=0.92 as=0.169 ps=1.82 w=0.65 l=0.15
X93 VSS.t59 select0.t8 x1.nSEL0 VSS.t58 sky130_fd_pr__nfet_01v8 ad=0.169 pd=1.82 as=0.08775 ps=0.92 w=0.65 l=0.15
X94 x3.GP2.t0 x3.GN2 VDD.t30 VDD.t29 sky130_fd_pr__pfet_01v8_hvt ad=0.135 pd=1.27 as=0.26 ps=2.52 w=1 l=0.15
X95 VDD.t34 x3.GN4.t8 x3.GP4.t0 VDD.t33 sky130_fd_pr__pfet_01v8_hvt ad=0.26 pd=2.52 as=0.135 ps=1.27 w=1 l=0.15
X96 x4.A x3.GN4.t9 A8.t0 VSS.t25 sky130_fd_pr__nfet_01v8_lvt ad=2.32 pd=16.58 as=2.32 ps=16.58 w=8 l=0.35
X97 VDD.t21 a_5645_6085# a_5645_5909# VDD.t20 sky130_fd_pr__pfet_01v8_hvt ad=0.0714 pd=0.76 as=0.0609 ps=0.71 w=0.42 l=0.15
X98 x3.GP3 x3.GN3 VDD.t12 VDD.t11 sky130_fd_pr__pfet_01v8_hvt ad=0.135 pd=1.27 as=0.26 ps=2.52 w=1 l=0.15
X99 VDD.t63 VSS.t79 VDD.t62 VDD.t61 sky130_fd_pr__pfet_01v8_hvt ad=0.2262 pd=2.26 as=0 ps=0 w=0.87 l=1.05
X100 a_5645_6085# select1.t8 VDD.t52 VDD.t51 sky130_fd_pr__pfet_01v8_hvt ad=0.1092 pd=1.36 as=0.0714 ps=0.76 w=0.42 l=0.15
X101 x1.nSEL0 select0.t9 VSS.t51 VSS.t50 sky130_fd_pr__nfet_01v8 ad=0.08775 pd=0.92 as=0.169 ps=1.82 w=0.65 l=0.15
X102 a_5645_6461# select1.t9 VDD.t50 VDD.t13 sky130_fd_pr__pfet_01v8_hvt ad=0.0609 pd=0.71 as=0.2279 ps=1.74 w=0.42 l=0.15
X103 A6.t3 x3.GP2.t7 x4.A VDD.t7 sky130_fd_pr__pfet_01v8_lvt ad=2.9 pd=20.58 as=2.9 ps=20.58 w=10 l=0.35
R0 VSS.n163 VSS.n162 587674
R1 VSS.n219 VSS.n218 153375
R2 VSS.n119 VSS.n112 117542
R3 VSS.n177 VSS.n176 71206.2
R4 VSS.n176 VSS.n175 64736.2
R5 VSS.n164 VSS.n9 16580.8
R6 VSS.n168 VSS.n108 11744.7
R7 VSS.n174 VSS.n108 11744.7
R8 VSS.n168 VSS.n109 11744.7
R9 VSS.n174 VSS.n109 11744.7
R10 VSS.n116 VSS.n106 11744.7
R11 VSS.n178 VSS.n106 11744.7
R12 VSS.n116 VSS.n107 11744.7
R13 VSS.n178 VSS.n107 11744.7
R14 VSS.n267 VSS.n22 11744.7
R15 VSS.n263 VSS.n22 11744.7
R16 VSS.n267 VSS.n23 11744.7
R17 VSS.n263 VSS.n23 11744.7
R18 VSS.n281 VSS.n10 11744.7
R19 VSS.n277 VSS.n10 11744.7
R20 VSS.n281 VSS.n11 11744.7
R21 VSS.n277 VSS.n11 11744.7
R22 VSS.n274 VSS.n16 11744.7
R23 VSS.n270 VSS.n16 11744.7
R24 VSS.n274 VSS.n17 11744.7
R25 VSS.n270 VSS.n17 11744.7
R26 VSS.n256 VSS.n28 11744.7
R27 VSS.n256 VSS.n29 11744.7
R28 VSS.n260 VSS.n29 11744.7
R29 VSS.n260 VSS.n28 11744.7
R30 VSS.n131 VSS.n130 11744.7
R31 VSS.n127 VSS.n126 11744.7
R32 VSS.n130 VSS.n127 11744.7
R33 VSS.n160 VSS.n120 11744.7
R34 VSS.n156 VSS.n121 11744.7
R35 VSS.n160 VSS.n121 11744.7
R36 VSS.n144 VSS.n143 11744.7
R37 VSS.n140 VSS.n139 11744.7
R38 VSS.n143 VSS.n140 11744.7
R39 VSS.n284 VSS.n4 11744.7
R40 VSS.n284 VSS.n5 11744.7
R41 VSS.n7 VSS.n4 11744.7
R42 VSS.n163 VSS.n112 10428.2
R43 VSS.n164 VSS.n117 7573.12
R44 VSS.n117 VSS.t73 7065.1
R45 VSS.n177 VSS.t74 7065.1
R46 VSS.t73 VSS.n113 6710.74
R47 VSS.n113 VSS.t74 6710.74
R48 VSS.n167 VSS.n165 6647.5
R49 VSS.n276 VSS.n275 6049.9
R50 VSS.n167 VSS.t75 6006.85
R51 VSS.n175 VSS.t65 6006.85
R52 VSS.n262 VSS.n261 6004.3
R53 VSS.n283 VSS.n282 5972.7
R54 VSS.n269 VSS.n268 5963.12
R55 VSS.t75 VSS.n166 5705.56
R56 VSS.n166 VSS.t65 5705.56
R57 VSS.n165 VSS.n112 4796.58
R58 VSS.n164 VSS.n163 3666.67
R59 VSS.n118 VSS.n9 3385.09
R60 VSS.n15 VSS.n9 3361.58
R61 VSS.n27 VSS.n21 3305.56
R62 VSS.n161 VSS.n119 3279.94
R63 VSS.n21 VSS.n15 3275.35
R64 VSS.n68 VSS.n27 2366.85
R65 VSS.n176 VSS.n33 2235.82
R66 VSS.n162 VSS.n161 1652.78
R67 VSS.n162 VSS.n118 1652.78
R68 VSS.t44 VSS.n57 1550.96
R69 VSS VSS.t23 1289.66
R70 VSS.n82 VSS.n69 1198.25
R71 VSS.n222 VSS.n220 1198.25
R72 VSS.n231 VSS.n57 1194.5
R73 VSS.n252 VSS.n251 1171.32
R74 VSS.n254 VSS.n33 1006.48
R75 VSS VSS.n57 918.774
R76 VSS.t46 VSS 918.774
R77 VSS.t60 VSS.t44 910.346
R78 VSS.t71 VSS.t48 826.054
R79 VSS.t42 VSS.t62 826.054
R80 VSS.t0 VSS.t55 792.337
R81 VSS.n273 VSS.n272 767.294
R82 VSS.n259 VSS.n258 767.294
R83 VSS.n158 VSS.n157 767.294
R84 VSS.n6 VSS.n3 767.294
R85 VSS.n266 VSS.n265 763.106
R86 VSS.n280 VSS.n279 763.106
R87 VSS.n128 VSS.n124 763.106
R88 VSS.n141 VSS.n137 763.106
R89 VSS.n169 VSS.n111 763.09
R90 VSS.n115 VSS.n105 763.09
R91 VSS.n111 VSS.n110 732.236
R92 VSS.n266 VSS.n24 732.236
R93 VSS.n280 VSS.n12 732.236
R94 VSS.n273 VSS.n18 732.236
R95 VSS.n259 VSS.n30 732.236
R96 VSS.n180 VSS.n105 732.236
R97 VSS.n133 VSS.n124 732.236
R98 VSS.n157 VSS.n154 732.236
R99 VSS.n146 VSS.n137 732.236
R100 VSS.n6 VSS.n1 732.236
R101 VSS.n219 VSS.n33 709.912
R102 VSS.t69 VSS.t27 708.047
R103 VSS.t55 VSS.t37 708.047
R104 VSS.t58 VSS.t50 708.047
R105 VSS.t54 VSS.t52 708.047
R106 VSS.t39 VSS.n252 606.351
R107 VSS.t64 VSS 564.751
R108 VSS.t27 VSS 564.751
R109 VSS.t50 VSS 564.751
R110 VSS VSS.t54 564.751
R111 VSS VSS.n219 564.751
R112 VSS.n218 VSS.t64 522.606
R113 VSS.t52 VSS.t18 522.606
R114 VSS.t21 VSS 480.461
R115 VSS VSS.t2 408.628
R116 VSS.t18 VSS.t46 387.74
R117 VSS VSS.n253 384.901
R118 VSS.n69 VSS.t34 374.356
R119 VSS.n220 VSS.t17 337.166
R120 VSS.n255 VSS.n254 332.642
R121 VSS.t13 VSS 329.539
R122 VSS.t11 VSS 329.539
R123 VSS VSS.t15 329.539
R124 VSS.n272 VSS.n271 325.502
R125 VSS.n258 VSS.n257 325.502
R126 VSS.n159 VSS.n158 325.502
R127 VSS.n285 VSS.n3 325.502
R128 VSS.n220 VSS.t71 320.307
R129 VSS.n170 VSS.n169 304.553
R130 VSS.n115 VSS.n114 304.553
R131 VSS.n265 VSS.n264 304.204
R132 VSS.n279 VSS.n278 304.204
R133 VSS.n129 VSS.n128 304.204
R134 VSS.n142 VSS.n141 304.204
R135 VSS.t17 VSS 295.019
R136 VSS.n172 VSS.n170 266.349
R137 VSS.n114 VSS.n104 266.349
R138 VSS VSS.t0 261.303
R139 VSS.t66 VSS 244.445
R140 VSS.n264 VSS.n26 242.448
R141 VSS.n278 VSS.n14 242.448
R142 VSS.n271 VSS.n20 242.448
R143 VSS.n257 VSS.n32 242.448
R144 VSS.n129 VSS.n123 242.448
R145 VSS.n159 VSS.n122 242.448
R146 VSS.n142 VSS.n136 242.448
R147 VSS.n286 VSS.n285 242.448
R148 VSS.n238 VSS.t1 240.575
R149 VSS.n216 VSS.t24 237.327
R150 VSS.t29 VSS.t13 221.451
R151 VSS.t8 VSS.t11 221.451
R152 VSS.t34 VSS.t32 221.451
R153 VSS.t15 VSS.t5 221.451
R154 VSS.n195 VSS.t79 218.308
R155 VSS.n61 VSS.t78 218.308
R156 VSS.n42 VSS.t77 218.308
R157 VSS.n225 VSS.t76 218.308
R158 VSS.n192 VSS.t40 214.456
R159 VSS.n194 VSS.t41 214.456
R160 VSS.n205 VSS.t3 214.456
R161 VSS.n62 VSS.t4 214.456
R162 VSS.n37 VSS.t19 214.456
R163 VSS.n41 VSS.t20 214.456
R164 VSS.n230 VSS.t67 214.456
R165 VSS.n224 VSS.t68 214.456
R166 VSS.n210 VSS.n209 204.457
R167 VSS.n50 VSS.n49 200.231
R168 VSS.n55 VSS.n54 200.231
R169 VSS.n44 VSS.n39 200.105
R170 VSS.n69 VSS 197.724
R171 VSS.n252 VSS 197.724
R172 VSS.n272 VSS.n17 195
R173 VSS.n17 VSS.t10 195
R174 VSS.n19 VSS.n16 195
R175 VSS.n16 VSS.t10 195
R176 VSS.n279 VSS.n11 195
R177 VSS.n11 VSS.t57 195
R178 VSS.n13 VSS.n10 195
R179 VSS.n10 VSS.t57 195
R180 VSS.n265 VSS.n23 195
R181 VSS.n23 VSS.t31 195
R182 VSS.n25 VSS.n22 195
R183 VSS.n22 VSS.t31 195
R184 VSS.n31 VSS.n28 195
R185 VSS.n253 VSS.n28 195
R186 VSS.n258 VSS.n29 195
R187 VSS.n29 VSS.t26 195
R188 VSS.n179 VSS.n178 195
R189 VSS.n178 VSS.n177 195
R190 VSS.n116 VSS.n115 195
R191 VSS.n117 VSS.n116 195
R192 VSS.n174 VSS.n173 195
R193 VSS.n175 VSS.n174 195
R194 VSS.n169 VSS.n168 195
R195 VSS.n168 VSS.n167 195
R196 VSS.n128 VSS.n127 195
R197 VSS.n127 VSS.t25 195
R198 VSS.n132 VSS.n131 195
R199 VSS.n158 VSS.n121 195
R200 VSS.n121 VSS.t7 195
R201 VSS.n153 VSS.n120 195
R202 VSS.n141 VSS.n140 195
R203 VSS.n140 VSS.t36 195
R204 VSS.n145 VSS.n144 195
R205 VSS.n4 VSS.n2 195
R206 VSS.t22 VSS.n4 195
R207 VSS.n5 VSS.n3 195
R208 VSS.n8 VSS.n5 188.989
R209 VSS.n144 VSS.n138 188.988
R210 VSS.n155 VSS.n120 188.986
R211 VSS.n131 VSS.n125 188.984
R212 VSS.n218 VSS.t60 185.441
R213 VSS.n261 VSS.t26 183.936
R214 VSS VSS.t42 177.012
R215 VSS VSS.t8 176.633
R216 VSS.t32 VSS 176.633
R217 VSS.t5 VSS 176.633
R218 VSS.n254 VSS 176.633
R219 VSS.n126 VSS.n125 173.373
R220 VSS.n156 VSS.n155 173.304
R221 VSS.n139 VSS.n138 173.167
R222 VSS.n8 VSS.n7 173.097
R223 VSS.n90 VSS.t14 162.471
R224 VSS.n85 VSS.t12 162.471
R225 VSS.n81 VSS.t35 162.471
R226 VSS.n76 VSS.t16 162.471
R227 VSS.n239 VSS.t56 162.471
R228 VSS.n50 VSS.t59 160.046
R229 VSS.n55 VSS.t70 160.046
R230 VSS.n64 VSS.t30 160.017
R231 VSS.n83 VSS.t9 160.017
R232 VSS.n71 VSS.t33 160.017
R233 VSS.n74 VSS.t6 160.017
R234 VSS.n246 VSS.t51 160.017
R235 VSS.n241 VSS.t38 160.017
R236 VSS.n238 VSS.t28 158.534
R237 VSS.n275 VSS.t10 155.954
R238 VSS.n282 VSS.t57 155.954
R239 VSS.n268 VSS.t31 155.831
R240 VSS.n255 VSS.t26 139.648
R241 VSS.n130 VSS.n119 118.54
R242 VSS.n161 VSS.n160 111.895
R243 VSS.n143 VSS.n118 111.808
R244 VSS.n276 VSS.n15 99.881
R245 VSS.n269 VSS.n21 93.748
R246 VSS.n262 VSS.n27 93.6734
R247 VSS.n68 VSS.t29 89.635
R248 VSS.n9 VSS.t22 89.4314
R249 VSS VSS.n68 86.9987
R250 VSS.t37 VSS.t21 84.2917
R251 VSS.n165 VSS.n164 79.0175
R252 VSS.n39 VSS.t53 72.8576
R253 VSS.n209 VSS.t61 72.8576
R254 VSS.n283 VSS.n9 72.6343
R255 VSS.n161 VSS.t7 66.9242
R256 VSS.t36 VSS.n118 66.8669
R257 VSS.n21 VSS.t10 62.2068
R258 VSS.n27 VSS.t31 62.1573
R259 VSS.t25 VSS.n119 60.352
R260 VSS.n49 VSS.t43 58.5719
R261 VSS.n54 VSS.t72 58.5719
R262 VSS.n15 VSS.t57 56.0738
R263 VSS.n173 VSS.n172 54.2123
R264 VSS.n179 VSS.n104 54.2123
R265 VSS.t48 VSS.t69 50.5752
R266 VSS.t62 VSS.t58 50.5752
R267 VSS.n208 VSS 43.9579
R268 VSS.n256 VSS.n255 42.2329
R269 VSS.n211 VSS.n208 34.6358
R270 VSS.n215 VSS.n58 34.6358
R271 VSS.n173 VSS.n110 30.8711
R272 VSS.n25 VSS.n24 30.8711
R273 VSS.n13 VSS.n12 30.8711
R274 VSS.n19 VSS.n18 30.8711
R275 VSS.n31 VSS.n30 30.8711
R276 VSS.n180 VSS.n179 30.8711
R277 VSS.n133 VSS.n132 30.8711
R278 VSS.n154 VSS.n153 30.8711
R279 VSS.n146 VSS.n145 30.8711
R280 VSS.n2 VSS.n1 30.8711
R281 VSS.n251 VSS.n34 26.9246
R282 VSS.n231 VSS.n215 25.6926
R283 VSS.n49 VSS.t63 25.4291
R284 VSS.n54 VSS.t49 25.4291
R285 VSS.n90 VSS.n89 25.224
R286 VSS.n89 VSS.n64 25.224
R287 VSS.n85 VSS.n84 25.224
R288 VSS.n84 VSS.n83 25.224
R289 VSS.n81 VSS.n80 25.224
R290 VSS.n80 VSS.n71 25.224
R291 VSS.n76 VSS.n75 25.224
R292 VSS.n75 VSS.n74 25.224
R293 VSS.n246 VSS.n245 25.224
R294 VSS.n240 VSS.n239 25.224
R295 VSS.n241 VSS.n240 25.224
R296 VSS.n238 VSS.n237 24.0946
R297 VSS.n253 VSS.t39 23.7273
R298 VSS.n39 VSS.t47 22.3257
R299 VSS.n209 VSS.t45 22.3257
R300 VSS.n245 VSS.n50 21.4593
R301 VSS.n237 VSS.n55 21.4593
R302 VSS.n85 VSS.n64 20.3299
R303 VSS.n76 VSS.n71 20.3299
R304 VSS.n91 VSS.n90 19.2926
R305 VSS.n246 VSS.n48 17.7867
R306 VSS.n82 VSS.n81 17.3181
R307 VSS.t23 VSS.t66 16.8587
R308 VSS.n83 VSS.n82 15.8123
R309 VSS.n74 VSS.n34 15.8123
R310 VSS.n284 VSS.n283 15.1478
R311 VSS.n191 VSS.n34 14.775
R312 VSS.n223 VSS.n222 14.775
R313 VSS.n239 VSS.n238 13.5534
R314 VSS.n207 VSS.n206 11.2844
R315 VSS.n271 VSS.n270 11.0382
R316 VSS.n270 VSS.n269 11.0382
R317 VSS.n274 VSS.n273 11.0382
R318 VSS.n275 VSS.n274 11.0382
R319 VSS.n278 VSS.n277 11.0382
R320 VSS.n277 VSS.n276 11.0382
R321 VSS.n281 VSS.n280 11.0382
R322 VSS.n282 VSS.n281 11.0382
R323 VSS.n264 VSS.n263 11.0382
R324 VSS.n263 VSS.n262 11.0382
R325 VSS.n267 VSS.n266 11.0382
R326 VSS.n268 VSS.n267 11.0382
R327 VSS.n260 VSS.n259 11.0382
R328 VSS.n261 VSS.n260 11.0382
R329 VSS.n257 VSS.n256 11.0382
R330 VSS.n114 VSS.n107 11.0382
R331 VSS.n113 VSS.n107 11.0382
R332 VSS.n106 VSS.n105 11.0382
R333 VSS.n113 VSS.n106 11.0382
R334 VSS.n170 VSS.n109 11.0382
R335 VSS.n166 VSS.n109 11.0382
R336 VSS.n111 VSS.n108 11.0382
R337 VSS.n166 VSS.n108 11.0382
R338 VSS.n130 VSS.n129 11.0382
R339 VSS.n126 VSS.n124 11.0382
R340 VSS.n160 VSS.n159 11.0382
R341 VSS.n157 VSS.n156 11.0382
R342 VSS.n143 VSS.n142 11.0382
R343 VSS.n139 VSS.n137 11.0382
R344 VSS.n7 VSS.n6 11.0382
R345 VSS.n285 VSS.n284 11.0382
R346 VSS.n26 VSS.n25 10.9181
R347 VSS.n14 VSS.n13 10.9181
R348 VSS.n20 VSS.n19 10.9181
R349 VSS.n32 VSS.n31 10.9181
R350 VSS.n132 VSS.n123 10.9181
R351 VSS.n153 VSS.n122 10.9181
R352 VSS.n145 VSS.n136 10.9181
R353 VSS.n286 VSS.n2 10.9181
R354 VSS.n171 VSS.n110 10.4476
R355 VSS.n95 VSS.n24 10.4476
R356 VSS.n99 VSS.n12 10.4476
R357 VSS.n97 VSS.n18 10.4476
R358 VSS.n93 VSS.n30 10.4476
R359 VSS.n181 VSS.n180 10.4476
R360 VSS.n134 VSS.n133 10.4476
R361 VSS.n154 VSS.n152 10.4476
R362 VSS.n147 VSS.n146 10.4476
R363 VSS.n287 VSS.n1 10.4476
R364 VSS.n241 VSS.n50 10.1652
R365 VSS.n194 VSS.n189 9.70901
R366 VSS.n206 VSS.n205 9.70901
R367 VSS.n41 VSS.n40 9.70901
R368 VSS.n210 VSS.n58 9.41227
R369 VSS.n251 VSS.n250 9.3005
R370 VSS.n74 VSS.n73 9.3005
R371 VSS.n78 VSS.n71 9.3005
R372 VSS.n82 VSS.n67 9.3005
R373 VSS.n83 VSS.n66 9.3005
R374 VSS.n87 VSS.n64 9.3005
R375 VSS.n92 VSS.n91 9.3005
R376 VSS.n203 VSS.n202 9.3005
R377 VSS.n204 VSS.n60 9.3005
R378 VSS.n90 VSS.n63 9.3005
R379 VSS.n89 VSS.n88 9.3005
R380 VSS.n86 VSS.n85 9.3005
R381 VSS.n84 VSS.n65 9.3005
R382 VSS.n81 VSS.n70 9.3005
R383 VSS.n80 VSS.n79 9.3005
R384 VSS.n77 VSS.n76 9.3005
R385 VSS.n75 VSS.n72 9.3005
R386 VSS.n197 VSS.n196 9.3005
R387 VSS.n193 VSS.n188 9.3005
R388 VSS.n191 VSS.n190 9.3005
R389 VSS.n36 VSS.n34 9.3005
R390 VSS.n232 VSS.n231 9.3005
R391 VSS.n229 VSS.n228 9.3005
R392 VSS.n56 VSS.n55 9.3005
R393 VSS.n238 VSS.n53 9.3005
R394 VSS.n243 VSS.n50 9.3005
R395 VSS.n43 VSS.n38 9.3005
R396 VSS.n46 VSS.n45 9.3005
R397 VSS.n48 VSS.n47 9.3005
R398 VSS.n247 VSS.n246 9.3005
R399 VSS.n245 VSS.n244 9.3005
R400 VSS.n242 VSS.n241 9.3005
R401 VSS.n240 VSS.n51 9.3005
R402 VSS.n239 VSS.n52 9.3005
R403 VSS.n237 VSS.n236 9.3005
R404 VSS.n223 VSS.n217 9.3005
R405 VSS.n227 VSS.n226 9.3005
R406 VSS.n215 VSS.n214 9.3005
R407 VSS.n213 VSS.n58 9.3005
R408 VSS.n212 VSS.n211 9.3005
R409 VSS.n208 VSS.n59 9.3005
R410 VSS.n222 VSS.n221 9.3005
R411 VSS.n101 VSS.n100 8.45078
R412 VSS.n150 VSS.n135 8.45078
R413 VSS.n184 VSS.n94 8.30267
R414 VSS.n288 VSS.n0 8.30267
R415 VSS.n102 VSS.n96 7.97888
R416 VSS.n149 VSS.n148 7.97888
R417 VSS.n101 VSS.n98 7.97601
R418 VSS.n151 VSS.n150 7.97601
R419 VSS.n171 VSS.n103 7.16724
R420 VSS.n96 VSS.n95 7.16724
R421 VSS.n100 VSS.n99 7.16724
R422 VSS.n98 VSS.n97 7.16724
R423 VSS.n94 VSS.n93 7.16724
R424 VSS.n182 VSS.n181 7.16724
R425 VSS.n135 VSS.n134 7.16724
R426 VSS.n152 VSS.n151 7.16724
R427 VSS.n148 VSS.n147 7.16724
R428 VSS.n288 VSS.n287 7.16724
R429 VSS.n222 VSS.n55 7.15344
R430 VSS.n249 VSS.n248 6.50373
R431 VSS.n211 VSS.n210 6.4005
R432 VSS.n196 VSS.n193 6.26433
R433 VSS.n204 VSS.n203 6.26433
R434 VSS.n193 VSS.n192 5.85582
R435 VSS.n205 VSS.n204 5.85582
R436 VSS.n45 VSS.n37 5.85582
R437 VSS.n230 VSS.n229 5.85582
R438 VSS.n226 VSS.n216 5.85582
R439 VSS.n249 VSS.n36 4.788
R440 VSS.n95 VSS.n26 4.73093
R441 VSS.n99 VSS.n14 4.73093
R442 VSS.n97 VSS.n20 4.73093
R443 VSS.n93 VSS.n32 4.73093
R444 VSS.n134 VSS.n123 4.73093
R445 VSS.n152 VSS.n122 4.73093
R446 VSS.n147 VSS.n136 4.73093
R447 VSS.n287 VSS.n286 4.73093
R448 VSS.n250 VSS.n249 4.50726
R449 VSS.n186 VSS 4.01425
R450 VSS.n185 VSS 4.01425
R451 VSS.n172 VSS.n171 3.78485
R452 VSS.n181 VSS.n104 3.78485
R453 VSS.n44 VSS.n43 3.40476
R454 VSS.n196 VSS.n195 3.13241
R455 VSS.n203 VSS.n61 3.13241
R456 VSS.n43 VSS.n42 3.13241
R457 VSS.n226 VSS.n225 3.13241
R458 VSS.n234 VSS.n233 2.88636
R459 VSS.t25 VSS.n125 2.87953
R460 VSS.n155 VSS.t7 2.87839
R461 VSS.t36 VSS.n138 2.87611
R462 VSS.t22 VSS.n8 2.87497
R463 VSS.n45 VSS.n44 2.86007
R464 VSS.n195 VSS.n194 2.7239
R465 VSS.n62 VSS.n61 2.7239
R466 VSS.n42 VSS.n41 2.7239
R467 VSS.n225 VSS.n224 2.7239
R468 VSS.n183 VSS.n103 2.03666
R469 VSS.n183 VSS.n182 1.77451
R470 VSS.n201 VSS.n200 1.753
R471 VSS.n199 VSS.n198 1.753
R472 VSS VSS.n187 1.48125
R473 VSS.n184 VSS.n183 1.44312
R474 VSS.n235 VSS.n234 1.21169
R475 VSS.n187 VSS.n186 1.11894
R476 VSS.n200 VSS 0.95037
R477 VSS.n200 VSS.n199 0.761313
R478 VSS.n234 VSS 0.531208
R479 VSS.n102 VSS.n101 0.467019
R480 VSS.n150 VSS.n149 0.467019
R481 VSS.n192 VSS.n191 0.409011
R482 VSS.n91 VSS.n62 0.409011
R483 VSS.n48 VSS.n37 0.409011
R484 VSS.n231 VSS.n230 0.409011
R485 VSS.n229 VSS.n216 0.409011
R486 VSS.n224 VSS.n223 0.409011
R487 VSS.n186 VSS.n0 0.198729
R488 VSS.n185 VSS.n184 0.194976
R489 VSS.n250 VSS.n35 0.1255
R490 VSS.n206 VSS.n60 0.120292
R491 VSS.n202 VSS.n60 0.120292
R492 VSS.n88 VSS.n63 0.120292
R493 VSS.n88 VSS.n87 0.120292
R494 VSS.n86 VSS.n65 0.120292
R495 VSS.n66 VSS.n65 0.120292
R496 VSS.n79 VSS.n70 0.120292
R497 VSS.n79 VSS.n78 0.120292
R498 VSS.n77 VSS.n72 0.120292
R499 VSS.n73 VSS.n72 0.120292
R500 VSS.n190 VSS.n188 0.120292
R501 VSS.n197 VSS.n189 0.120292
R502 VSS.n212 VSS.n59 0.120292
R503 VSS.n213 VSS.n212 0.120292
R504 VSS.n214 VSS.n213 0.120292
R505 VSS.n227 VSS.n217 0.120292
R506 VSS.n52 VSS.n51 0.120292
R507 VSS.n242 VSS.n51 0.120292
R508 VSS.n244 VSS.n243 0.120292
R509 VSS.n47 VSS.n46 0.120292
R510 VSS.n46 VSS.n38 0.120292
R511 VSS.n40 VSS.n38 0.120292
R512 VSS VSS.n227 0.0981562
R513 VSS VSS.n207 0.09425
R514 VSS.n199 VSS 0.0881354
R515 VSS.n184 VSS.n102 0.0766574
R516 VSS.n149 VSS.n0 0.0766574
R517 VSS.n198 VSS.n197 0.0721146
R518 VSS.n236 VSS.n235 0.0708125
R519 VSS.n96 VSS 0.064875
R520 VSS.n98 VSS 0.064875
R521 VSS.n94 VSS 0.064875
R522 VSS.n151 VSS 0.064875
R523 VSS.n148 VSS 0.064875
R524 VSS VSS.n288 0.064875
R525 VSS.n100 VSS 0.063625
R526 VSS.n135 VSS 0.063625
R527 VSS.n202 VSS.n201 0.0616979
R528 VSS.n103 VSS 0.061125
R529 VSS.n182 VSS 0.061125
R530 VSS.n63 VSS 0.0603958
R531 VSS VSS.n86 0.0603958
R532 VSS.n67 VSS 0.0603958
R533 VSS.n70 VSS 0.0603958
R534 VSS VSS.n77 0.0603958
R535 VSS VSS.n36 0.0603958
R536 VSS.n190 VSS 0.0603958
R537 VSS.n214 VSS 0.0603958
R538 VSS.n228 VSS 0.0603958
R539 VSS.n221 VSS 0.0603958
R540 VSS VSS.n56 0.0603958
R541 VSS.n236 VSS 0.0603958
R542 VSS VSS.n53 0.0603958
R543 VSS VSS.n52 0.0603958
R544 VSS.n243 VSS 0.0603958
R545 VSS.n244 VSS 0.0603958
R546 VSS.n47 VSS 0.0603958
R547 VSS.n201 VSS.n92 0.0590938
R548 VSS.n248 VSS 0.0590938
R549 VSS.n235 VSS.n56 0.0499792
R550 VSS.n198 VSS.n188 0.0486771
R551 VSS.n233 VSS 0.0460729
R552 VSS.n187 VSS.n185 0.040297
R553 VSS.n232 VSS 0.0343542
R554 VSS VSS.n67 0.0330521
R555 VSS.n221 VSS 0.0330521
R556 VSS VSS.n35 0.03175
R557 VSS.n92 VSS 0.0226354
R558 VSS.n87 VSS 0.0226354
R559 VSS VSS.n66 0.0226354
R560 VSS.n78 VSS 0.0226354
R561 VSS.n73 VSS 0.0226354
R562 VSS.n189 VSS 0.0226354
R563 VSS.n228 VSS 0.0226354
R564 VSS VSS.n217 0.0226354
R565 VSS.n53 VSS 0.0226354
R566 VSS VSS.n242 0.0226354
R567 VSS.n247 VSS 0.0226354
R568 VSS.n40 VSS 0.0226354
R569 VSS.n233 VSS.n232 0.0148229
R570 VSS.n207 VSS.n59 0.00440625
R571 VSS.n36 VSS.n35 0.00180208
R572 VSS.n248 VSS.n247 0.00180208
R573 select1.n10 select1.t8 327.99
R574 select1.n3 select1.t7 293.969
R575 select1.n6 select1.t4 256.07
R576 select1.n1 select1.t6 212.081
R577 select1.n0 select1.t3 212.081
R578 select1.n10 select1.t0 199.457
R579 select1.n2 select1.n1 182.929
R580 select1 select1.n3 154.065
R581 select1.n11 select1.n10 152
R582 select1.n7 select1.n6 152
R583 select1.n6 select1.t2 150.03
R584 select1.n1 select1.t5 139.78
R585 select1.n0 select1.t1 139.78
R586 select1.n3 select1.t9 138.338
R587 select1.n1 select1.n0 61.346
R588 select1.n5 select1 22.1096
R589 select1.n14 select1.n13 14.6836
R590 select1.n13 select1.n12 14.6704
R591 select1.n12 select1 13.8672
R592 select1.n4 select1 13.8328
R593 select1.n11 select1 12.1605
R594 select1.n14 select1.n2 10.6811
R595 select1.n7 select1.n5 10.4374
R596 select1.n9 select1.n8 8.15359
R597 select1.n2 select1 6.1445
R598 select1.n4 select1 5.16179
R599 select1.n9 select1.n4 4.65206
R600 select1.n8 select1 3.93896
R601 select1 select1.n11 2.34717
R602 select1.n5 select1 2.16665
R603 select1.n8 select1.n7 1.57588
R604 select1.n13 select1.n9 0.79438
R605 select1.n12 select1 0.6405
R606 select1 select1.n14 0.248606
R607 select2.n5 select2.t0 450.938
R608 select2.n5 select2.t2 445.666
R609 select2.n0 select2.t3 377.486
R610 select2.n0 select2.t4 374.202
R611 select2.n2 select2.t1 212.081
R612 select2.n1 select2.t6 212.081
R613 select2.n3 select2.n2 183.441
R614 select2.n2 select2.t7 139.78
R615 select2.n1 select2.t5 139.78
R616 select2.n2 select2.n1 61.346
R617 select2.n8 select2.n7 12.4093
R618 select2 select2.n3 11.4331
R619 select2.n7 select2.n6 9.10647
R620 select2.n7 select2.n4 8.98648
R621 select2.n3 select2 5.6325
R622 select2.n4 select2 5.02323
R623 select2.n6 select2.n5 3.1748
R624 select2.n8 select2.n0 2.10165